REMARK  2 active torsions:
REMARK  status: ('A' for Active; 'I' for Inactive)
REMARK       I    between atoms: C_1  and  N_2 
REMARK    1  A    between atoms: N_2  and  C_4 
REMARK    2  A    between atoms: C_5  and  O_10 
ROOT
HETATM    1  C   UNL     1       1.006  -2.262  -1.233  1.00  0.00     0.034 A 
HETATM    2  C   UNL     1       1.915  -4.297  -2.920  1.00  0.00     0.065 A 
HETATM    3  C   UNL     1       1.971  -1.994  -2.206  1.00  0.00     0.032 A 
HETATM    4  C   UNL     1       0.465  -3.552  -1.151  1.00  0.00     0.032 A 
HETATM    5  C   UNL     1       0.930  -4.576  -1.980  1.00  0.00     0.039 A 
HETATM    6  C   UNL     1       2.426  -3.013  -3.048  1.00  0.00     0.039 A 
ENDROOT
BRANCH   1   7
HETATM    7  N   UNL     1       0.494  -1.297  -0.352  1.00  0.00    -0.328 N 
HETATM    8  C   UNL     1       1.013  -0.123   0.111  1.00  0.00     0.218 C 
HETATM    9  O   UNL     1       0.279   0.642   0.742  1.00  0.00    -0.274 OA
HETATM   10  C   UNL     1       2.472   0.196  -0.068  1.00  0.00     0.117 C 
HETATM   11  H   UNL     1      -0.420  -1.481   0.046  1.00  0.00     0.169 HD
ENDBRANCH   1   7
BRANCH   2  12
HETATM   12  O   UNL     1       2.405  -5.262  -3.747  1.00  0.00    -0.361 OA
HETATM   13  H   UNL     1       1.988  -6.110  -3.520  1.00  0.00     0.217 HD
ENDBRANCH   2  12
TORSDOF 2
