REMARK  6 active torsions:
REMARK  status: ('A' for Active; 'I' for Inactive)
REMARK    1  A    between atoms: O_1  and  C_2 
REMARK    2  A    between atoms: C_2  and  C_4 
REMARK    3  A    between atoms: C_5  and  N_22 
REMARK    4  A    between atoms: C_8  and  O_10 
REMARK    5  A    between atoms: O_10  and  C_11 
REMARK    6  A    between atoms: C_14  and  C_18 
ROOT
HETATM    1  C   UNL     1       2.972   1.413   0.180  1.00  0.00     0.073 A 
HETATM    2  C   UNL     1       2.585   2.756   0.131  1.00  0.00     0.119 A 
HETATM    3  C   UNL     1       3.429   3.738   0.672  1.00  0.00     0.040 A 
HETATM    4  C   UNL     1       4.633   3.365   1.275  1.00  0.00     0.040 A 
HETATM    5  C   UNL     1       5.032   2.024   1.313  1.00  0.00     0.077 A 
HETATM    6  C   UNL     1       4.215   1.051   0.735  1.00  0.00     0.058 A 
ENDROOT
BRANCH   5   7
HETATM    7  O   UNL     1       6.179   1.791   2.042  1.00  0.00    -0.309 OA
BRANCH   7   8
HETATM    8  C   UNL     1       6.941   0.682   1.771  1.00  0.00     0.097 A 
HETATM    9  C   UNL     1       8.106   0.881   1.023  1.00  0.00     0.040 A 
HETATM   10  C   UNL     1       8.998  -0.174   0.815  1.00  0.00     0.019 A 
HETATM   11  C   UNL     1       8.731  -1.447   1.343  1.00  0.00     0.049 A 
HETATM   12  C   UNL     1       7.576  -1.629   2.122  1.00  0.00     0.042 A 
HETATM   13  C   UNL     1       6.701  -0.564   2.360  1.00  0.00     0.068 A 
HETATM   14 CL   UNL     1       5.370  -0.829   3.428  1.00  0.00    -0.081 Cl
BRANCH  11  15
HETATM   15  C   UNL     1       9.700  -2.587   1.137  1.00  0.00     0.417 C 
HETATM   16  F   UNL     1      10.401  -2.488  -0.026  1.00  0.00    -0.166 F 
HETATM   17  F   UNL     1      10.628  -2.658   2.130  1.00  0.00    -0.166 F 
HETATM   18  F   UNL     1       9.090  -3.803   1.104  1.00  0.00    -0.166 F 
ENDBRANCH  11  15
ENDBRANCH   7   8
ENDBRANCH   5   7
BRANCH   1  19
HETATM   19  C   UNL     1       2.102   0.305  -0.245  1.00  0.00     0.178 C 
HETATM   20  O   UNL     1       2.379  -0.556  -1.043  1.00  0.00    -0.646 OA
BRANCH  19  21
HETATM   21  O   UNL     1       0.978   0.309   0.496  1.00  0.00    -0.773 OA
HETATM   22  H   UNL     1       0.442  -0.431   0.138  1.00  0.00     0.167 HD
ENDBRANCH  19  21
ENDBRANCH   1  19
BRANCH   2  23
HETATM   23  N   UNL     1       1.334   3.187  -0.502  1.00  0.00    -0.115 N 
HETATM   24  O   UNL     1       0.789   2.432  -1.317  1.00  0.00    -0.532 OA
HETATM   25  O   UNL     1       0.920   4.322  -0.222  1.00  0.00    -0.532 OA
ENDBRANCH   2  23
TORSDOF 6
