REMARK  1 active torsions:
REMARK  status: ('A' for Active; 'I' for Inactive)
REMARK    1  A    between atoms: C_5  and  N_17 
ROOT
HETATM    1  O   UNL     1       0.873  -0.072  -0.090  1.00  0.00    -0.287 OA
HETATM    2  C   UNL     1       2.099  -0.062  -0.084  1.00  0.00     0.194 A 
HETATM    3  C   UNL     1       2.837   1.216  -0.081  1.00  0.00     0.031 A 
HETATM    4  C   UNL     1       2.128   2.425  -0.052  1.00  0.00     0.039 A 
HETATM    5  C   UNL     1       2.802   3.649  -0.083  1.00  0.00     0.006 A 
HETATM    6  C   UNL     1       4.199   3.646  -0.046  1.00  0.00     0.024 A 
HETATM    7  C   UNL     1       4.914   2.444  -0.073  1.00  0.00     0.018 A 
HETATM    8  C   UNL     1       4.229   1.226  -0.095  1.00  0.00     0.029 A 
HETATM    9  C   UNL     1       4.988  -0.041  -0.107  1.00  0.00     0.194 A 
HETATM   10  O   UNL     1       6.213  -0.031  -0.126  1.00  0.00    -0.287 OA
HETATM   11  C   UNL     1       4.250  -1.320  -0.095  1.00  0.00     0.029 A 
HETATM   12  C   UNL     1       2.856  -1.330  -0.086  1.00  0.00     0.029 A 
HETATM   13  C   UNL     1       2.166  -2.549  -0.079  1.00  0.00     0.016 A 
HETATM   14  C   UNL     1       2.873  -3.753  -0.078  1.00  0.00     0.001 A 
HETATM   15  C   UNL     1       4.268  -3.743  -0.084  1.00  0.00     0.001 A 
HETATM   16  C   UNL     1       4.957  -2.529  -0.093  1.00  0.00     0.016 A 
ENDROOT
BRANCH   5  17
HETATM   17  N   UNL     1       2.098   4.844   0.085  1.00  0.00    -0.303 NA
HETATM   18  H   UNL     1       1.135   4.811  -0.236  1.00  0.00     0.124 HD
HETATM   19  H   UNL     1       2.586   5.670  -0.250  1.00  0.00     0.124 HD
ENDBRANCH   5  17
TORSDOF 1
