REMARK  3 active torsions:
REMARK  status: ('A' for Active; 'I' for Inactive)
REMARK    1  A    between atoms: C_3  and  N_8 
REMARK    2  A    between atoms: N_9  and  C_10 
REMARK    3  A    between atoms: C_13  and  N_16 
ROOT
HETATM    1  C   UNL     1       2.347   4.575  -0.604  1.00  0.00     0.079 A 
HETATM    2  C   UNL     1       1.026   4.671  -1.056  1.00  0.00     0.042 A 
HETATM    3  C   UNL     1       0.348   5.905  -1.077  1.00  0.00    -0.039 A 
HETATM    4  C   UNL     1       1.032   7.073  -0.702  1.00  0.00     0.012 A 
HETATM    5  C   UNL     1       2.331   6.962  -0.190  1.00  0.00     0.026 A 
HETATM    6  C   UNL     1       2.991   5.728  -0.165  1.00  0.00     0.035 A 
HETATM    7  C   UNL     1      -1.081   5.938  -1.545  1.00  0.00     0.050 C 
ENDROOT
BRANCH   1   8
HETATM    8  N   UNL     1       3.045   3.354  -0.650  1.00  0.00    -0.150 NA
HETATM    9  N   UNL     1       2.568   2.537   0.168  1.00  0.00    -0.149 NA
BRANCH   9  10
HETATM   10  C   UNL     1       3.211   1.280   0.075  1.00  0.00     0.085 A 
HETATM   11  C   UNL     1       2.447   0.098   0.054  1.00  0.00    -0.032 A 
HETATM   12  C   UNL     1       0.946   0.113   0.130  1.00  0.00     0.050 C 
HETATM   13  C   UNL     1       3.099  -1.149   0.001  1.00  0.00     0.009 A 
HETATM   14  C   UNL     1       4.490  -1.226  -0.043  1.00  0.00     0.001 A 
HETATM   15  C   UNL     1       5.249  -0.062  -0.020  1.00  0.00     0.002 A 
HETATM   16  C   UNL     1       4.614   1.180   0.047  1.00  0.00     0.034 A 
ENDBRANCH   9  10
ENDBRANCH   1   8
BRANCH   4  17
HETATM   17  N   UNL     1       0.379   8.313  -0.622  1.00  0.00    -0.302 NA
HETATM   18  H   UNL     1      -0.382   8.418  -1.285  1.00  0.00     0.124 HD
HETATM   19  H   UNL     1       1.010   9.108  -0.647  1.00  0.00     0.124 HD
ENDBRANCH   4  17
TORSDOF 3
