REMARK  2 active torsions:
REMARK  status: ('A' for Active; 'I' for Inactive)
REMARK    1  A    between atoms: C_6  and  N_8 
REMARK    2  A    between atoms: N_8  and  C_9 
ROOT
HETATM    1  N   UNL     1       5.665   2.074  -0.132  1.00  0.00    -0.186 N 
HETATM    2  H   UNL     1       5.106   2.906  -0.279  1.00  0.00     0.184 HD
ENDROOT
BRANCH   1   3
HETATM    3  C   UNL     1       4.793   1.004   0.037  1.00  0.00     0.732 A 
HETATM    4  N   UNL     1       5.195  -0.202   0.393  1.00  0.00    -0.031 NA
HETATM    5  C   UNL     1       4.239  -1.117   0.475  1.00  0.00     0.244 A 
HETATM    6  N   UNL     1       2.943  -0.950   0.303  1.00  0.00    -0.186 NA
HETATM    7 CL   UNL     1       4.748  -2.709   0.830  1.00  0.00    -0.041 Cl
HETATM    8  C   UNL     1       2.665   0.304   0.011  1.00  0.00     0.244 A 
HETATM    9 CL   UNL     1       1.013   0.683  -0.199  1.00  0.00    -0.041 Cl
HETATM   10  N   UNL     1       3.514   1.314  -0.138  1.00  0.00    -0.031 NA
ENDBRANCH   1   3
BRANCH   1  11
HETATM   11  C   UNL     1       7.054   2.284  -0.170  1.00  0.00     0.071 A 
HETATM   12  C   UNL     1       7.468   3.613   0.087  1.00  0.00     0.032 A 
HETATM   13  C   UNL     1       8.815   3.987   0.121  1.00  0.00     0.002 A 
HETATM   14  C   UNL     1       9.798   3.032  -0.080  1.00  0.00     0.002 A 
HETATM   15  C   UNL     1       9.427   1.713  -0.328  1.00  0.00     0.026 A 
HETATM   16  C   UNL     1       8.072   1.336  -0.384  1.00  0.00     0.061 A 
HETATM   17 CL   UNL     1       7.798  -0.296  -0.879  1.00  0.00    -0.082 Cl
ENDBRANCH   1  11
TORSDOF 2
