REMARK  2 active torsions:
REMARK  status: ('A' for Active; 'I' for Inactive)
REMARK    1  A    between atoms: C_3  and  C_4 
REMARK    2  A    between atoms: C_7  and  O_10 
ROOT
HETATM    1  C   UNL     1       4.637   1.017   0.194  1.00  0.00    -0.036 A 
HETATM    2  C   UNL     1       5.316   2.147  -0.270  1.00  0.00     0.014 A 
HETATM    3  C   UNL     1       6.711   2.142  -0.369  1.00  0.00     0.037 A 
HETATM    4  C   UNL     1       7.447   1.014  -0.001  1.00  0.00     0.068 A 
HETATM    5  C   UNL     1       6.777  -0.106   0.489  1.00  0.00     0.037 A 
HETATM    6  C   UNL     1       5.380  -0.102   0.587  1.00  0.00     0.014 A 
ENDROOT
BRANCH   1   7
HETATM    7  C   UNL     1       3.175   1.050   0.304  1.00  0.00     0.007 C 
HETATM    8  C   UNL     1       2.382   0.059  -0.134  1.00  0.00    -0.030 C 
HETATM    9  C   UNL     1       0.893   0.095  -0.029  1.00  0.00     0.036 C 
ENDBRANCH   1   7
BRANCH   4  10
HETATM   10  O   UNL     1       8.801   1.136  -0.156  1.00  0.00    -0.356 OA
HETATM   11  C   UNL     1       9.575  -0.040   0.043  1.00  0.00     0.210 C 
ENDBRANCH   4  10
TORSDOF 2
