REMARK  5 active torsions:
REMARK  status: ('A' for Active; 'I' for Inactive)
REMARK    1  A    between atoms: C_1  and  C_9 
REMARK    2  A    between atoms: C_5  and  O_7 
REMARK    3  A    between atoms: C_9  and  O_11 
REMARK    4  A    between atoms: C_9  and  C_10 
REMARK    5  A    between atoms: C_10  and  O_12 
ROOT
HETATM    1  C   UNL     1      -0.253   1.269   0.317  1.00  0.00     0.239 A 
HETATM    2  O   UNL     1      -1.139   0.131   0.242  1.00  0.00    -0.300 OA
HETATM    3  C   UNL     1       1.129   0.686   0.127  1.00  0.00     0.220 A 
HETATM    4  C   UNL     1      -0.412  -1.007   0.040  1.00  0.00     0.321 A 
HETATM    5  C   UNL     1       1.006  -0.632  -0.027  1.00  0.00     0.191 A 
HETATM    6  O   UNL     1       2.113   1.473   0.136  1.00  0.00    -0.287 OA
HETATM    7  O   UNL     1      -0.888  -2.125  -0.073  1.00  0.00    -0.257 OA
ENDROOT
BRANCH   1   8
HETATM    8  C   UNL     1      -0.639   2.300  -0.773  1.00  0.00     0.179 C 
BRANCH   8   9
HETATM    9  O   UNL     1       0.237   3.450  -0.744  1.00  0.00    -0.390 OA
HETATM   10  H   UNL     1       1.120   3.048  -0.519  1.00  0.00     0.210 HD
ENDBRANCH   8   9
BRANCH   8  11
HETATM   11  C   UNL     1      -2.068   2.825  -0.600  1.00  0.00     0.198 C 
BRANCH  11  12
HETATM   12  O   UNL     1      -2.104   3.848   0.401  1.00  0.00    -0.398 OA
HETATM   13  H   UNL     1      -1.239   4.301   0.291  1.00  0.00     0.209 HD
ENDBRANCH  11  12
ENDBRANCH   8  11
ENDBRANCH   1   8
BRANCH   5  14
HETATM   14  O   UNL     1       2.068  -1.474  -0.226  1.00  0.00    -0.353 OA
HETATM   15  H   UNL     1       2.808  -0.828  -0.198  1.00  0.00     0.218 HD
ENDBRANCH   5  14
TORSDOF 5
