REMARK  4 active torsions:
REMARK  status: ('A' for Active; 'I' for Inactive)
REMARK    1  A    between atoms: O_1  and  C_2 
REMARK    2  A    between atoms: C_2  and  C_4 
REMARK    3  A    between atoms: C_5  and  O_10 
REMARK    4  A    between atoms: O_10  and  C_11 
ROOT
HETATM    1  C   UNL     1       2.995   1.054  -0.803  1.00  0.00     0.071 A 
HETATM    2  C   UNL     1       2.773   2.435  -0.689  1.00  0.00     0.096 A 
HETATM    3  C   UNL     1       3.385   3.312  -1.583  1.00  0.00     0.038 A 
HETATM    4  C   UNL     1       4.218   2.809  -2.587  1.00  0.00     0.003 A 
HETATM    5  C   UNL     1       4.451   1.437  -2.695  1.00  0.00     0.001 A 
HETATM    6  C   UNL     1       3.845   0.558  -1.798  1.00  0.00     0.021 A 
ENDROOT
BRANCH   1   7
HETATM    7  C   UNL     1       2.375   0.074   0.113  1.00  0.00     0.178 C 
HETATM    8  O   UNL     1       2.999  -0.824   0.649  1.00  0.00    -0.646 OA
BRANCH   7   9
HETATM    9  O   UNL     1       1.036   0.223   0.216  1.00  0.00    -0.773 OA
HETATM   10  H   UNL     1       0.676   0.944  -0.335  1.00  0.00     0.167 HD
ENDBRANCH   7   9
ENDBRANCH   1   7
BRANCH   2  11
HETATM   11  O   UNL     1       1.932   2.863   0.374  1.00  0.00    -0.278 OA
BRANCH  11  12
HETATM   12  C   UNL     1       1.588   4.175   0.715  1.00  0.00     0.260 C 
HETATM   13  O   UNL     1       1.912   5.192   0.121  1.00  0.00    -0.265 OA
HETATM   14  C   UNL     1       0.720   4.160   1.939  1.00  0.00     0.126 C 
ENDBRANCH  11  12
ENDBRANCH   2  11
TORSDOF 4
