REMARK  3 active torsions:
REMARK  status: ('A' for Active; 'I' for Inactive)
REMARK    1  A    between atoms: C_6  and  S_7 
REMARK    2  A    between atoms: S_7  and  C_8 
REMARK    3  A    between atoms: C_13  and  N_14 
ROOT
HETATM    1  N   UNL     1       1.875   1.101   0.698  1.00  0.00    -0.232 NA
HETATM    2  C   UNL     1       1.663  -0.057   1.358  1.00  0.00     0.236 A 
HETATM    3  N   UNL     1       0.555  -0.806   1.367  1.00  0.00    -0.220 NA
HETATM    4  C   UNL     1      -0.421  -0.305   0.591  1.00  0.00     0.181 A 
HETATM    5  C   UNL     1      -0.290   0.861  -0.139  1.00  0.00     0.117 A 
HETATM    6  C   UNL     1       0.885   1.581  -0.084  1.00  0.00     0.131 A 
HETATM    7  N   UNL     1      -1.489   1.002  -0.783  1.00  0.00    -0.345 N 
HETATM    8  C   UNL     1      -2.282  -0.049  -0.413  1.00  0.00     0.210 A 
HETATM    9  N   UNL     1      -1.663  -0.855   0.420  1.00  0.00    -0.222 NA
HETATM   10  H   UNL     1      -1.743   1.746  -1.419  1.00  0.00     0.167 HD
ENDROOT
BRANCH   6  11
HETATM   11  S   UNL     1       1.054   3.098  -0.981  1.00  0.00    -0.046 SA
BRANCH  11  12
HETATM   12  C   UNL     1       2.667   3.564  -0.533  1.00  0.00     0.132 A 
HETATM   13  N   UNL     1       2.916   4.728   0.157  1.00  0.00    -0.337 N 
HETATM   14  C   UNL     1       1.959   5.713   0.603  1.00  0.00     0.158 C 
HETATM   15  C   UNL     1       4.265   4.805   0.379  1.00  0.00     0.212 A 
HETATM   16  N   UNL     1       4.904   3.778  -0.133  1.00  0.00    -0.218 NA
HETATM   17  C   UNL     1       3.916   2.993  -0.705  1.00  0.00     0.230 A 
BRANCH  17  18
HETATM   18  N   UNL     1       4.268   1.769  -1.386  1.00  0.00    -0.093 N 
HETATM   19  O   UNL     1       5.312   1.201  -1.037  1.00  0.00    -0.530 OA
HETATM   20  O   UNL     1       3.510   1.383  -2.290  1.00  0.00    -0.530 OA
ENDBRANCH  17  18
ENDBRANCH  11  12
ENDBRANCH   6  11
TORSDOF 3
