REMARK  4 active torsions:
REMARK  status: ('A' for Active; 'I' for Inactive)
REMARK    1  A    between atoms: N_1  and  C_10 
REMARK    2  A    between atoms: C_11  and  C_18 
REMARK    3  A    between atoms: C_13  and  N_17 
REMARK    4  A    between atoms: C_18  and  O_19 
ROOT
HETATM    1  N   UNL     1      -3.246  -6.106  -0.754  1.00  0.00    -0.167 NA
HETATM    2  N   UNL     1      -3.987  -6.957  -0.611  1.00  0.00     0.068 N 
HETATM    3  N   UNL     1      -2.441  -5.165  -0.892  1.00  0.00    -0.107 NA
ENDROOT
BRANCH   3   4
HETATM    4  C   UNL     1      -1.607  -4.841   0.285  1.00  0.00     0.180 C 
HETATM    5  C   UNL     1      -2.418  -4.077   1.345  1.00  0.00     0.175 C 
HETATM    6  O   UNL     1      -2.102  -2.673   1.195  1.00  0.00    -0.356 OA
HETATM    7  C   UNL     1      -1.368  -2.520  -0.034  1.00  0.00     0.234 C 
HETATM    8  C   UNL     1      -0.577  -3.817  -0.147  1.00  0.00     0.087 C 
BRANCH   5   9
HETATM    9  C   UNL     1      -2.068  -4.477   2.779  1.00  0.00     0.198 C 
BRANCH   9  10
HETATM   10  O   UNL     1      -0.744  -4.055   3.102  1.00  0.00    -0.398 OA
HETATM   11  H   UNL     1      -0.757  -3.083   2.990  1.00  0.00     0.209 HD
ENDBRANCH   9  10
ENDBRANCH   5   9
BRANCH   7  12
HETATM   12  N   UNL     1      -0.646  -1.254   0.004  1.00  0.00    -0.282 N 
HETATM   13  C   UNL     1      -1.432  -0.103  -0.050  1.00  0.00     0.331 C 
HETATM   14  N   UNL     1      -0.751   1.084   0.003  1.00  0.00    -0.275 N 
HETATM   15  O   UNL     1      -2.656  -0.091  -0.165  1.00  0.00    -0.246 OA
HETATM   16  C   UNL     1       0.601   1.241  -0.054  1.00  0.00     0.256 C 
HETATM   17  H   UNL     1      -1.310   1.920  -0.041  1.00  0.00     0.173 HD
HETATM   18  C   UNL     1       1.393  -0.009  -0.048  1.00  0.00     0.022 C 
HETATM   19  O   UNL     1       1.130   2.344  -0.124  1.00  0.00    -0.267 OA
HETATM   20  C   UNL     1       0.734  -1.175  -0.005  1.00  0.00     0.110 C 
HETATM   21  C   UNL     1       2.880   0.121  -0.112  1.00  0.00     0.056 C 
ENDBRANCH   7  12
ENDBRANCH   3   4
TORSDOF 4
