REMARK  5 active torsions:
REMARK  status: ('A' for Active; 'I' for Inactive)
REMARK    1  A    between atoms: N_11  and  C_12 
REMARK    2  A    between atoms: C_12  and  S_13 
REMARK    3  A    between atoms: S_13  and  P_14 
REMARK    4  A    between atoms: P_14  and  O_16 
REMARK    5  A    between atoms: P_14  and  O_18 
ROOT
HETATM    1  O   UNL     1       0.815  -0.051   0.110  1.00  0.00    -0.265 OA
HETATM    2  C   UNL     1       2.040  -0.049   0.151  1.00  0.00     0.278 C 
HETATM    3  C   UNL     1       2.785  -1.310   0.108  1.00  0.00     0.064 A 
HETATM    4  C   UNL     1       4.165  -1.213   0.191  1.00  0.00     0.096 A 
HETATM    5  C   UNL     1       4.924  -2.388   0.119  1.00  0.00     0.034 A 
HETATM    6  C   UNL     1       4.304  -3.632  -0.018  1.00  0.00     0.002 A 
HETATM    7  C   UNL     1       2.914  -3.712  -0.084  1.00  0.00     0.001 A 
HETATM    8  C   UNL     1       2.147  -2.548  -0.024  1.00  0.00     0.019 A 
HETATM    9  N   UNL     1       4.826   0.003   0.367  1.00  0.00    -0.131 NA
HETATM   10  N   UNL     1       4.171   1.064   0.411  1.00  0.00    -0.062 NA
HETATM   11  N   UNL     1       2.813   1.095   0.225  1.00  0.00    -0.205 N 
ENDROOT
BRANCH  11  12
HETATM   12  C   UNL     1       2.150   2.400   0.272  1.00  0.00     0.240 C 
BRANCH  12  13
HETATM   13  S   UNL     1       3.232   3.747  -0.209  1.00  0.00    -0.052 SA
BRANCH  13  14
HETATM   14  P   UNL     1       2.133   5.556  -0.321  1.00  0.00     0.248 P 
HETATM   15  S   UNL     1       3.776   6.588  -0.894  1.00  0.00    -0.026 SA
BRANCH  14  16
HETATM   16  O   UNL     1       1.198   5.023  -1.579  1.00  0.00    -0.332 OA
HETATM   17  C   UNL     1       1.732   4.524  -2.795  1.00  0.00     0.211 C 
ENDBRANCH  14  16
BRANCH  14  18
HETATM   18  O   UNL     1       1.236   7.033  -0.412  1.00  0.00    -0.332 OA
HETATM   19  C   UNL     1       0.826   7.532   0.848  1.00  0.00     0.211 C 
ENDBRANCH  14  18
ENDBRANCH  13  14
ENDBRANCH  12  13
ENDBRANCH  11  12
TORSDOF 5
