REMARK  2 active torsions:
REMARK  status: ('A' for Active; 'I' for Inactive)
REMARK    1  A    between atoms: N_1  and  C_9 
REMARK    2  A    between atoms: N_2  and  C_3 
ROOT
HETATM    1  N   UNL     1       0.890   0.157  -0.341  1.00  0.00    -0.150 NA
HETATM    2  N   UNL     1       0.323   1.047   0.331  1.00  0.00    -0.150 NA
ENDROOT
BRANCH   1   3
HETATM    3  C   UNL     1       2.293   0.197  -0.206  1.00  0.00     0.079 A 
HETATM    4  C   UNL     1       3.029   1.392  -0.191  1.00  0.00     0.033 A 
HETATM    5  C   UNL     1       4.425   1.374  -0.125  1.00  0.00     0.002 A 
HETATM    6  C   UNL     1       5.104   0.159  -0.082  1.00  0.00     0.000 A 
HETATM    7  C   UNL     1       4.390  -1.037  -0.099  1.00  0.00     0.002 A 
HETATM    8  C   UNL     1       2.993  -1.015  -0.163  1.00  0.00     0.033 A 
ENDBRANCH   1   3
BRANCH   2   9
HETATM    9  C   UNL     1      -1.077   1.025   0.154  1.00  0.00     0.079 A 
HETATM   10  C   UNL     1      -1.826  -0.160   0.114  1.00  0.00     0.033 A 
HETATM   11  C   UNL     1      -3.216  -0.125  -0.033  1.00  0.00     0.002 A 
HETATM   12  C   UNL     1      -3.875   1.098  -0.129  1.00  0.00     0.000 A 
HETATM   13  C   UNL     1      -3.147   2.285  -0.079  1.00  0.00     0.002 A 
HETATM   14  C   UNL     1      -1.757   2.246   0.064  1.00  0.00     0.033 A 
ENDBRANCH   2   9
TORSDOF 2
