REMARK  3 active torsions:
REMARK  status: ('A' for Active; 'I' for Inactive)
REMARK    1  A    between atoms: N_1  and  C_2 
REMARK    2  A    between atoms: C_5  and  C_6 
REMARK    3  A    between atoms: C_9  and  N_10 
ROOT
HETATM    1  C   UNL     1       2.369  -0.033   0.131  1.00  0.00     0.005 A 
HETATM    2  C   UNL     1       3.054   1.175   0.066  1.00  0.00     0.024 A 
HETATM    3  C   UNL     1       4.438   1.207  -0.171  1.00  0.00     0.014 A 
HETATM    4  C   UNL     1       5.208   0.036  -0.310  1.00  0.00    -0.026 A 
HETATM    5  C   UNL     1       4.500  -1.171  -0.141  1.00  0.00     0.014 A 
HETATM    6  C   UNL     1       3.115  -1.204   0.093  1.00  0.00     0.024 A 
ENDROOT
BRANCH   4   7
HETATM    7  C   UNL     1       6.671   0.070  -0.637  1.00  0.00    -0.026 A 
HETATM    8  C   UNL     1       7.383   1.276  -0.786  1.00  0.00     0.014 A 
HETATM    9  C   UNL     1       8.735   1.310  -1.166  1.00  0.00     0.024 A 
HETATM   10  C   UNL     1       9.426   0.138  -1.450  1.00  0.00     0.005 A 
HETATM   11  C   UNL     1       8.779  -1.069  -1.217  1.00  0.00     0.024 A 
HETATM   12  C   UNL     1       7.426  -1.102  -0.841  1.00  0.00     0.014 A 
BRANCH  10  13
HETATM   13  N   UNL     1      10.795   0.170  -1.737  1.00  0.00    -0.303 NA
HETATM   14  H   UNL     1      11.092   1.026  -2.193  1.00  0.00     0.124 HD
HETATM   15  H   UNL     1      11.124  -0.656  -2.226  1.00  0.00     0.124 HD
ENDBRANCH  10  13
ENDBRANCH   4   7
BRANCH   1  16
HETATM   16  N   UNL     1       1.010  -0.064   0.456  1.00  0.00    -0.303 NA
HETATM   17  H   UNL     1       0.502   0.762   0.154  1.00  0.00     0.124 HD
HETATM   18  H   UNL     1       0.545  -0.920   0.169  1.00  0.00     0.124 HD
ENDBRANCH   1  16
TORSDOF 3
