REMARK  1 active torsions:
REMARK  status: ('A' for Active; 'I' for Inactive)
REMARK    1  A    between atoms: C_1  and  C_7 
ROOT
HETATM    1  C   UNL     1      -1.423  -0.066  -0.080  1.00  0.00     0.040 A 
HETATM    2  C   UNL     1      -0.764   1.174  -0.047  1.00  0.00     0.018 A 
HETATM    3  C   UNL     1       0.630   1.247   0.009  1.00  0.00     0.001 A 
HETATM    4  C   UNL     1       1.388   0.077   0.033  1.00  0.00     0.000 A 
HETATM    5  C   UNL     1       0.753  -1.163   0.001  1.00  0.00     0.001 A 
HETATM    6  C   UNL     1      -0.641  -1.233  -0.055  1.00  0.00     0.018 A 
ENDROOT
BRANCH   1   7
HETATM    7  C   UNL     1      -2.937  -0.143  -0.142  1.00  0.00     0.209 C 
HETATM    8  O   UNL     1      -3.458  -1.303  -0.191  1.00  0.00    -0.644 OA
HETATM    9  O   UNL     1      -3.575   0.957  -0.140  1.00  0.00    -0.644 OA
ENDBRANCH   1   7
TORSDOF 1
