REMARK  1 active torsions:
REMARK  status: ('A' for Active; 'I' for Inactive)
REMARK    1  A    between atoms: C_2  and  C_3 
ROOT
HETATM    1  C   UNL     1       3.285  -1.391   0.480  1.00  0.00    -0.005 A 
HETATM    2  C   UNL     1       4.515  -1.553   1.153  1.00  0.00     0.011 A 
HETATM    3  C   UNL     1       4.970  -2.814   1.551  1.00  0.00     0.001 A 
HETATM    4  C   UNL     1       4.219  -3.950   1.269  1.00  0.00     0.000 A 
HETATM    5  C   UNL     1       3.019  -3.828   0.579  1.00  0.00     0.001 A 
HETATM    6  C   UNL     1       2.563  -2.567   0.180  1.00  0.00     0.011 A 
ENDROOT
BRANCH   1   7
HETATM    7  C   UNL     1       2.802  -0.021   0.003  1.00  0.00     0.216 C 
HETATM    8 CL   UNL     1       1.006   0.115   0.009  1.00  0.00    -0.078 Cl
HETATM    9 CL   UNL     1       3.386   0.245  -1.672  1.00  0.00    -0.078 Cl
HETATM   10 CL   UNL     1       3.396   1.332   1.031  1.00  0.00    -0.078 Cl
ENDBRANCH   1   7
TORSDOF 1
