REMARK  2 active torsions:
REMARK  status: ('A' for Active; 'I' for Inactive)
REMARK    1  A    between atoms: O_1  and  C_2 
REMARK    2  A    between atoms: C_2  and  C_4 
ROOT
HETATM    1  C   UNL     1       3.134  -1.296   0.425  1.00  0.00     0.037 A 
HETATM    2  C   UNL     1       4.428  -1.197   0.947  1.00  0.00     0.018 A 
HETATM    3  C   UNL     1       5.121  -2.352   1.313  1.00  0.00     0.001 A 
HETATM    4  C   UNL     1       4.526  -3.603   1.149  1.00  0.00     0.000 A 
HETATM    5  C   UNL     1       3.243  -3.706   0.610  1.00  0.00     0.001 A 
HETATM    6  C   UNL     1       2.546  -2.554   0.241  1.00  0.00     0.018 A 
ENDROOT
BRANCH   1   7
HETATM    7  C   UNL     1       2.432  -0.048   0.044  1.00  0.00     0.176 C 
HETATM    8  O   UNL     1       2.999   0.914  -0.444  1.00  0.00    -0.646 OA
BRANCH   7   9
HETATM    9  O   UNL     1       1.115  -0.067   0.341  1.00  0.00    -0.773 OA
HETATM   10  H   UNL     1       0.835  -0.821   0.892  1.00  0.00     0.167 HD
ENDBRANCH   7   9
ENDBRANCH   1   7
TORSDOF 2
