REMARK  0 active torsions:
REMARK  status: ('A' for Active; 'I' for Inactive)
ROOT
HETATM    1  C   UNL     1      -1.638   1.142   0.000  1.00  0.00     0.039 A 
HETATM    2  C   UNL     1      -2.361  -0.029   0.000  1.00  0.00     0.143 A 
HETATM    3  O   UNL     1      -1.531  -1.105   0.000  1.00  0.00    -0.322 OA
HETATM    4  C   UNL     1      -0.257  -0.622   0.000  1.00  0.00     0.085 A 
HETATM    5  C   UNL     1      -0.268   0.768   0.000  1.00  0.00    -0.001 A 
HETATM    6  C   UNL     1       0.962   1.449  -0.000  1.00  0.00     0.014 A 
HETATM    7  C   UNL     1       2.147   0.699  -0.000  1.00  0.00     0.001 A 
HETATM    8  C   UNL     1       2.115  -0.699  -0.000  1.00  0.00     0.003 A 
HETATM    9  C   UNL     1       0.902  -1.395   0.000  1.00  0.00     0.038 A 
ENDROOT
TORSDOF 0
