REMARK  2 active torsions:
REMARK  status: ('A' for Active; 'I' for Inactive)
REMARK    1  A    between atoms: O_1  and  C_2 
REMARK    2  A    between atoms: C_2  and  C_3 
ROOT
HETATM    1  C   UNL     1       2.817   1.381   0.694  1.00  0.00    -0.035 A 
HETATM    2  C   UNL     1       2.172   2.591   0.398  1.00  0.00     0.009 A 
HETATM    3  C   UNL     1       2.601   3.787   0.977  1.00  0.00     0.001 A 
HETATM    4  C   UNL     1       3.685   3.789   1.852  1.00  0.00     0.000 A 
HETATM    5  C   UNL     1       4.343   2.596   2.146  1.00  0.00     0.001 A 
HETATM    6  C   UNL     1       3.915   1.399   1.566  1.00  0.00     0.009 A 
ENDROOT
BRANCH   1   7
HETATM    7  C   UNL     1       2.390   0.094   0.040  1.00  0.00     0.202 C 
BRANCH   7   8
HETATM    8  O   UNL     1       0.973   0.021  -0.050  1.00  0.00    -0.396 OA
HETATM    9  H   UNL     1       0.764  -0.842  -0.443  1.00  0.00     0.209 HD
ENDBRANCH   7   8
ENDBRANCH   1   7
TORSDOF 2
