REMARK  3 active torsions:
REMARK  status: ('A' for Active; 'I' for Inactive)
REMARK    1  A    between atoms: O_1  and  C_2 
REMARK    2  A    between atoms: C_3  and  C_9 
REMARK    3  A    between atoms: C_9  and  C_10 
ROOT
HETATM    1  C   UNL     1       2.525  -0.089  -0.212  1.00  0.00     0.072 A 
HETATM    2  C   UNL     1       3.295   1.057   0.047  1.00  0.00    -0.019 A 
HETATM    3  C   UNL     1       4.631   0.859   0.443  1.00  0.00     0.034 A 
HETATM    4  C   UNL     1       5.188  -0.424   0.474  1.00  0.00     0.034 A 
HETATM    5  C   UNL     1       4.420  -1.538   0.155  1.00  0.00     0.026 A 
HETATM    6  C   UNL     1       3.079  -1.371  -0.177  1.00  0.00     0.039 A 
HETATM    7 CL   UNL     1       6.844  -0.625   0.899  1.00  0.00    -0.084 Cl
ENDROOT
BRANCH   2   8
HETATM    8  C   UNL     1       2.677   2.440  -0.048  1.00  0.00     0.080 C 
BRANCH   8   9
HETATM    9  C   UNL     1       3.559   3.654  -0.264  1.00  0.00    -0.054 A 
HETATM   10  C   UNL     1       3.216   4.863   0.364  1.00  0.00     0.007 A 
HETATM   11  C   UNL     1       3.961   6.023   0.147  1.00  0.00     0.001 A 
HETATM   12  C   UNL     1       5.064   5.993  -0.702  1.00  0.00     0.000 A 
HETATM   13  C   UNL     1       5.404   4.809  -1.353  1.00  0.00     0.001 A 
HETATM   14  C   UNL     1       4.642   3.655  -1.156  1.00  0.00     0.007 A 
ENDBRANCH   8   9
ENDBRANCH   2   8
BRANCH   1  15
HETATM   15  O   UNL     1       1.190  -0.040  -0.503  1.00  0.00    -0.360 OA
HETATM   16  H   UNL     1       0.814   0.787  -0.161  1.00  0.00     0.217 HD
ENDBRANCH   1  15
TORSDOF 3
