REMARK  1 active torsions:
REMARK  status: ('A' for Active; 'I' for Inactive)
REMARK    1  A    between atoms: C_2  and  C_7 
ROOT
HETATM    1  C   UNL     1      -0.721   1.138  -0.016  1.00  0.00     0.012 A 
HETATM    2  C   UNL     1      -1.392  -0.099  -0.132  1.00  0.00    -0.026 A 
HETATM    3  C   UNL     1      -0.565  -1.242  -0.101  1.00  0.00     0.012 A 
HETATM    4  C   UNL     1       0.829  -1.159   0.027  1.00  0.00     0.001 A 
HETATM    5  C   UNL     1       1.449   0.078   0.124  1.00  0.00     0.000 A 
HETATM    6  C   UNL     1       0.673   1.228   0.104  1.00  0.00     0.001 A 
ENDROOT
BRANCH   2   7
HETATM    7  C   UNL     1      -2.881  -0.191  -0.295  1.00  0.00    -0.026 A 
HETATM    8  C   UNL     1      -3.562  -1.427  -0.323  1.00  0.00     0.012 A 
HETATM    9  C   UNL     1      -4.949  -1.517  -0.506  1.00  0.00     0.001 A 
HETATM   10  C   UNL     1      -5.710  -0.367  -0.658  1.00  0.00     0.000 A 
HETATM   11  C   UNL     1      -5.083   0.870  -0.623  1.00  0.00     0.001 A 
HETATM   12  C   UNL     1      -3.694   0.953  -0.447  1.00  0.00     0.012 A 
ENDBRANCH   2   7
TORSDOF 1
