REMARK  4 active torsions:
REMARK  status: ('A' for Active; 'I' for Inactive)
REMARK    1  A    between atoms: C_2  and  C_3 
REMARK    2  A    between atoms: C_3  and  O_4 
REMARK    3  A    between atoms: O_4  and  C_5 
REMARK    4  A    between atoms: C_5  and  C_6 
ROOT
HETATM    1  O   UNL     1       4.710  -0.873   1.067  1.00  0.00    -0.389 OA
ENDROOT
BRANCH   1   2
HETATM    2  C   UNL     1       3.279  -0.856   1.047  1.00  0.00     0.182 C 
BRANCH   2   3
HETATM    3  C   UNL     1       2.816   0.069  -0.069  1.00  0.00     0.140 C 
HETATM    4 CL   UNL     1       1.042   0.132  -0.144  1.00  0.00    -0.128 Cl
ENDBRANCH   2   3
ENDBRANCH   1   2
BRANCH   1   5
HETATM    5  C   UNL     1       5.212  -1.729   2.099  1.00  0.00     0.182 C 
BRANCH   5   6
HETATM    6  C   UNL     1       6.733  -1.700   2.063  1.00  0.00     0.140 C 
HETATM    7 CL   UNL     1       7.417  -2.746   3.325  1.00  0.00    -0.128 Cl
ENDBRANCH   5   6
ENDBRANCH   1   5
TORSDOF 4
