REMARK  6 active torsions:
REMARK  status: ('A' for Active; 'I' for Inactive)
REMARK    1  A    between atoms: O_1  and  C_2 
REMARK    2  A    between atoms: C_2  and  C_3 
REMARK    3  A    between atoms: C_3  and  C_4 
REMARK    4  A    between atoms: C_3  and  C_6 
REMARK    5  A    between atoms: C_3  and  C_8 
REMARK    6  A    between atoms: C_4  and  O_5 
ROOT
HETATM    1  C   UNL     1       2.954  -1.192   0.886  1.00  0.00     0.020 C 
ENDROOT
BRANCH   1   2
HETATM    2  C   UNL     1       2.484  -0.013  -0.010  1.00  0.00     0.177 C 
BRANCH   2   3
HETATM    3  O   UNL     1       1.074   0.125  -0.039  1.00  0.00    -0.400 OA
HETATM    4  H   UNL     1       0.869   0.965  -0.486  1.00  0.00     0.209 HD
ENDBRANCH   2   3
ENDBRANCH   1   2
BRANCH   1   5
HETATM    5  C   UNL     1       2.468  -0.960   2.333  1.00  0.00     0.177 C 
BRANCH   5   6
HETATM    6  O   UNL     1       3.151   0.149   2.917  1.00  0.00    -0.400 OA
HETATM    7  H   UNL     1       3.679  -0.195   3.660  1.00  0.00     0.209 HD
ENDBRANCH   5   6
ENDBRANCH   1   5
BRANCH   1   8
HETATM    8  C   UNL     1       2.468  -2.546   0.325  1.00  0.00     0.099 C 
HETATM    9 BR   UNL     1       0.570  -2.932   0.516  1.00  0.00    -0.096 Br
ENDBRANCH   1   8
BRANCH   1  10
HETATM   10  C   UNL     1       4.502  -1.149   0.803  1.00  0.00     0.099 C 
HETATM   11 BR   UNL     1       5.410  -2.426   1.968  1.00  0.00    -0.096 Br
ENDBRANCH   1  10
TORSDOF 6
