REMARK  7 active torsions:
REMARK  status: ('A' for Active; 'I' for Inactive)
REMARK    1  A    between atoms: C_2  and  C_4 
REMARK    2  A    between atoms: C_3  and  C_7 
REMARK    3  A    between atoms: C_5  and  C_6 
REMARK    4  A    between atoms: C_7  and  O_10 
REMARK    5  A    between atoms: C_9  and  C_13 
REMARK    6  A    between atoms: O_10  and  C_14 
REMARK    7  A    between atoms: C_11  and  C_14 
ROOT
HETATM    1  O   UNL     1      -0.775  -1.394  -2.296  1.00  0.00    -0.317 OA
ENDROOT
BRANCH   1   2
HETATM    2  C   UNL     1      -1.315  -0.730  -1.236  1.00  0.00     0.264 C 
HETATM    3  O   UNL     1      -2.506  -0.427  -1.263  1.00  0.00    -0.265 OA
BRANCH   2   4
HETATM    4  C   UNL     1      -0.570  -0.398   0.027  1.00  0.00     0.102 A 
HETATM    5  C   UNL     1      -0.010   1.048   0.108  1.00  0.00    -0.027 A 
HETATM    6  C   UNL     1       0.819  -0.138   0.535  1.00  0.00     0.033 A 
HETATM    7  C   UNL     1      -0.464   1.963   1.221  1.00  0.00     0.016 C 
HETATM    8  C   UNL     1       0.241   1.804  -1.178  1.00  0.00     0.016 C 
BRANCH   6   9
HETATM    9  C   UNL     1       2.090  -0.521  -0.070  1.00  0.00     0.008 C 
HETATM   10  C   UNL     1       2.743  -1.690   0.100  1.00  0.00     0.114 C 
HETATM   11 CL   UNL     1       4.234  -1.931  -0.770  1.00  0.00    -0.080 Cl
BRANCH  10  12
HETATM   12  C   UNL     1       2.318  -2.866   0.938  1.00  0.00     0.427 C 
HETATM   13  F   UNL     1       2.104  -3.973   0.181  1.00  0.00    -0.165 F 
HETATM   14  F   UNL     1       3.253  -3.193   1.867  1.00  0.00    -0.165 F 
HETATM   15  F   UNL     1       1.163  -2.647   1.621  1.00  0.00    -0.165 F 
ENDBRANCH  10  12
ENDBRANCH   6   9
ENDBRANCH   2   4
ENDBRANCH   1   2
BRANCH   1  16
HETATM   16  C   UNL     1       0.617  -1.640  -2.473  1.00  0.00     0.218 C 
BRANCH  16  17
HETATM   17  C   UNL     1       0.973  -1.876  -3.931  1.00  0.00    -0.027 C 
HETATM   18  C   UNL     1       1.486  -0.858  -4.810  1.00  0.00    -0.043 C 
HETATM   19  C   UNL     1       1.642  -1.115  -6.213  1.00  0.00    -0.019 C 
HETATM   20  C   UNL     1       1.891   0.467  -4.208  1.00  0.00     0.049 C 
HETATM   21  C   UNL     1       1.489  -2.472  -6.594  1.00  0.00     0.013 C 
HETATM   22  C   UNL     1       1.105  -3.486  -5.715  1.00  0.00     0.002 C 
HETATM   23  C   UNL     1       0.794  -3.179  -4.406  1.00  0.00     0.010 C 
BRANCH  19  24
HETATM   24  C   UNL     1       1.922  -0.078  -7.296  1.00  0.00    -0.025 A 
HETATM   25  C   UNL     1       1.772   1.314  -7.122  1.00  0.00     0.012 A 
HETATM   26  C   UNL     1       2.019   2.252  -8.140  1.00  0.00     0.001 A 
HETATM   27  C   UNL     1       2.358   1.828  -9.413  1.00  0.00     0.000 A 
HETATM   28  C   UNL     1       2.469   0.470  -9.655  1.00  0.00     0.001 A 
HETATM   29  C   UNL     1       2.277  -0.454  -8.614  1.00  0.00     0.012 A 
ENDBRANCH  19  24
ENDBRANCH  16  17
ENDBRANCH   1  16
TORSDOF 7
