REMARK  4 active torsions:
REMARK  status: ('A' for Active; 'I' for Inactive)
REMARK    1  A    between atoms: C_2  and  C_3 
REMARK    2  A    between atoms: C_2  and  C_10 
REMARK    3  A    between atoms: C_6  and  O_9 
REMARK    4  A    between atoms: C_13  and  O_16 
ROOT
HETATM    1  C   UNL     1       1.001  -0.166   0.023  1.00  0.00     0.025 C 
HETATM    2  C   UNL     1       2.552  -0.054  -0.009  1.00  0.00     0.007 C 
HETATM    3  C   UNL     1       3.030  -1.062  -1.094  1.00  0.00     0.025 C 
ENDROOT
BRANCH   2   4
HETATM    4  C   UNL     1       2.943   1.399  -0.399  1.00  0.00    -0.045 A 
HETATM    5  C   UNL     1       2.280   2.506   0.175  1.00  0.00     0.011 A 
HETATM    6  C   UNL     1       2.619   3.822  -0.163  1.00  0.00     0.037 A 
HETATM    7  C   UNL     1       3.633   4.051  -1.082  1.00  0.00     0.065 A 
HETATM    8  C   UNL     1       4.318   2.990  -1.653  1.00  0.00     0.037 A 
HETATM    9  C   UNL     1       3.983   1.677  -1.307  1.00  0.00     0.011 A 
BRANCH   7  10
HETATM   10  O   UNL     1       3.993   5.314  -1.448  1.00  0.00    -0.361 OA
HETATM   11  H   UNL     1       3.416   5.945  -0.988  1.00  0.00     0.217 HD
ENDBRANCH   7  10
ENDBRANCH   2   4
BRANCH   2  12
HETATM   12  C   UNL     1       3.114  -0.508   1.365  1.00  0.00    -0.045 A 
HETATM   13  C   UNL     1       3.879   0.336   2.192  1.00  0.00     0.011 A 
HETATM   14  C   UNL     1       4.361  -0.098   3.434  1.00  0.00     0.037 A 
HETATM   15  C   UNL     1       4.098  -1.392   3.861  1.00  0.00     0.065 A 
HETATM   16  C   UNL     1       3.356  -2.255   3.070  1.00  0.00     0.037 A 
HETATM   17  C   UNL     1       2.865  -1.815   1.837  1.00  0.00     0.011 A 
BRANCH  15  18
HETATM   18  O   UNL     1       4.554  -1.857   5.058  1.00  0.00    -0.361 OA
HETATM   19  H   UNL     1       5.061  -1.150   5.489  1.00  0.00     0.217 HD
ENDBRANCH  15  18
ENDBRANCH   2  12
TORSDOF 4
