REMARK  12 active torsions:
REMARK  status: ('A' for Active; 'I' for Inactive)
REMARK    1  A    between atoms: S_2  and  C_4 
REMARK    2  A    between atoms: C_5  and  C_10 
REMARK    3  A    between atoms: C_10  and  C_31 
REMARK    4  A    between atoms: N_15  and  C_16 
REMARK    5  A    between atoms: N_15  and  C_27 
REMARK    6  A    between atoms: C_16  and  C_17 
REMARK    7  A    between atoms: C_19  and  S_23 
REMARK    8  A    between atoms: C_34  and  N_37 
REMARK    9  A    between atoms: N_37  and  C_38 
REMARK   10  A    between atoms: N_37  and  C_49 
REMARK   11  A    between atoms: C_38  and  C_39 
REMARK   12  A    between atoms: C_41  and  S_45 
ROOT
HETATM    1  C   UNL     1       1.570   2.813  -0.757  1.00  0.00    -0.004 C 
HETATM    2  C   UNL     1       1.079   1.581  -1.052  1.00  0.00    -0.024 C 
HETATM    3  C   UNL     1       1.518   0.973  -2.306  1.00  0.00     0.014 C 
HETATM    4  C   UNL     1       1.144  -0.266  -2.643  1.00  0.00     0.030 C 
HETATM    5  C   UNL     1       0.081  -0.932  -1.846  1.00  0.00     0.030 C 
HETATM    6  N   UNL     1      -0.241  -2.163  -2.075  1.00  0.00    -0.377 N 
HETATM    7  C   UNL     1      -0.689  -0.087  -0.886  1.00  0.00     0.030 C 
HETATM    8  C   UNL     1      -0.205   1.110  -0.530  1.00  0.00     0.014 C 
ENDROOT
BRANCH   1   9
HETATM    9  C   UNL     1       2.995   2.919  -0.158  1.00  0.00     0.000 C 
HETATM   10  C   UNL     1       4.239   2.281  -0.449  1.00  0.00     0.091 C 
HETATM   11  C   UNL     1       5.459   2.782   0.088  1.00  0.00     0.027 C 
HETATM   12  C   UNL     1       5.493   3.837   0.986  1.00  0.00     0.002 C 
HETATM   13  C   UNL     1       4.294   4.340   1.437  1.00  0.00     0.001 C 
HETATM   14  C   UNL     1       3.091   3.852   0.905  1.00  0.00     0.014 C 
BRANCH  10  15
HETATM   15  S   UNL     1       4.502   0.656  -1.278  1.00  0.00     0.138 S 
HETATM   16  O   UNL     1       3.445  -0.191  -0.754  1.00  0.00    -0.591 OA
HETATM   17  O   UNL     1       4.426   0.998  -2.699  1.00  0.00    -0.591 OA
HETATM   18  O   UNL     1       5.843   0.233  -0.865  1.00  0.00    -0.591 OA
ENDBRANCH  10  15
ENDBRANCH   1   9
BRANCH   1  19
HETATM   19  C   UNL     1       0.545   3.957  -0.995  1.00  0.00    -0.024 A 
HETATM   20  C   UNL     1      -0.428   3.829  -2.013  1.00  0.00     0.014 A 
HETATM   21  C   UNL     1      -1.421   4.798  -2.273  1.00  0.00     0.030 A 
HETATM   22  C   UNL     1      -1.537   5.964  -1.520  1.00  0.00     0.030 A 
HETATM   23  C   UNL     1      -0.528   6.137  -0.562  1.00  0.00     0.030 A 
HETATM   24  C   UNL     1       0.493   5.181  -0.327  1.00  0.00     0.014 A 
BRANCH  22  25
HETATM   25  N   UNL     1      -2.533   6.919  -1.797  1.00  0.00    -0.377 N 
BRANCH  25  26
HETATM   26  C   UNL     1      -3.978   6.560  -1.716  1.00  0.00     0.161 C 
BRANCH  26  27
HETATM   27  C   UNL     1      -4.477   5.168  -2.041  1.00  0.00    -0.039 A 
HETATM   28  C   UNL     1      -4.279   4.099  -1.152  1.00  0.00     0.035 A 
HETATM   29  C   UNL     1      -4.787   2.832  -1.462  1.00  0.00     0.081 A 
HETATM   30  C   UNL     1      -5.546   2.620  -2.616  1.00  0.00     0.026 A 
HETATM   31  C   UNL     1      -5.779   3.680  -3.484  1.00  0.00     0.002 A 
HETATM   32  C   UNL     1      -5.240   4.940  -3.205  1.00  0.00     0.009 A 
BRANCH  29  33
HETATM   33  S   UNL     1      -4.456   1.399  -0.405  1.00  0.00     0.137 S 
HETATM   34  O   UNL     1      -5.798   1.046   0.051  1.00  0.00    -0.591 OA
HETATM   35  O   UNL     1      -3.849   0.450  -1.342  1.00  0.00    -0.591 OA
HETATM   36  O   UNL     1      -3.560   1.924   0.617  1.00  0.00    -0.591 OA
ENDBRANCH  29  33
ENDBRANCH  26  27
ENDBRANCH  25  26
BRANCH  25  37
HETATM   37  C   UNL     1      -2.234   8.278  -1.286  1.00  0.00     0.119 C 
HETATM   38  C   UNL     1      -3.112   9.363  -1.900  1.00  0.00     0.026 C 
ENDBRANCH  25  37
ENDBRANCH  22  25
ENDBRANCH   1  19
BRANCH   6  39
HETATM   39  C   UNL     1       0.793  -3.250  -2.163  1.00  0.00     0.161 C 
BRANCH  39  40
HETATM   40  C   UNL     1       1.866  -3.229  -1.105  1.00  0.00    -0.039 A 
HETATM   41  C   UNL     1       1.562  -3.028   0.252  1.00  0.00     0.035 A 
HETATM   42  C   UNL     1       2.588  -2.994   1.205  1.00  0.00     0.081 A 
HETATM   43  C   UNL     1       3.918  -3.181   0.831  1.00  0.00     0.026 A 
HETATM   44  C   UNL     1       4.224  -3.424  -0.507  1.00  0.00     0.002 A 
HETATM   45  C   UNL     1       3.206  -3.458  -1.466  1.00  0.00     0.009 A 
BRANCH  42  46
HETATM   46  S   UNL     1       2.198  -2.741   2.959  1.00  0.00     0.137 S 
HETATM   47  O   UNL     1       2.607  -4.019   3.542  1.00  0.00    -0.591 OA
HETATM   48  O   UNL     1       3.012  -1.593   3.340  1.00  0.00    -0.591 OA
HETATM   49  O   UNL     1       0.752  -2.518   2.954  1.00  0.00    -0.591 OA
ENDBRANCH  42  46
ENDBRANCH  39  40
ENDBRANCH   6  39
BRANCH   6  50
HETATM   50  C   UNL     1      -1.673  -2.514  -2.354  1.00  0.00     0.119 C 
HETATM   51  C   UNL     1      -1.777  -3.390  -3.601  1.00  0.00     0.026 C 
ENDBRANCH   6  50
TORSDOF 12
