REMARK  9 active torsions:
REMARK  status: ('A' for Active; 'I' for Inactive)
REMARK    1  A    between atoms: C_1  and  C_3 
REMARK    2  A    between atoms: C_2  and  C_4 
REMARK    3  A    between atoms: C_3  and  O_5 
REMARK    4  A    between atoms: C_4  and  O_6 
REMARK    5  A    between atoms: O_5  and  C_13 
REMARK    6  A    between atoms: O_6  and  C_17 
REMARK    7  A    between atoms: C_13  and  C_14 
REMARK    8  A    between atoms: C_14  and  C_15 
REMARK    9  A    between atoms: C_17  and  C_18 
ROOT
HETATM    1  C   UNL     1      -1.297  -0.165  -0.004  1.00  0.00     0.055 A 
HETATM    2  C   UNL     1      -0.108  -0.887   0.145  1.00  0.00     0.055 A 
HETATM    3  C   UNL     1      -1.228   1.207  -0.300  1.00  0.00     0.018 A 
HETATM    4  C   UNL     1       1.131  -0.236   0.000  1.00  0.00     0.018 A 
HETATM    5  C   UNL     1       0.009   1.844  -0.445  1.00  0.00     0.001 A 
HETATM    6  C   UNL     1       1.189   1.122  -0.296  1.00  0.00     0.001 A 
ENDROOT
BRANCH   2   7
HETATM    7  C   UNL     1      -0.042  -2.270   0.641  1.00  0.00     0.294 C 
HETATM    8  O   UNL     1      -0.504  -2.626   1.713  1.00  0.00    -0.259 OA
BRANCH   7   9
HETATM    9  O   UNL     1       0.738  -3.002  -0.193  1.00  0.00    -0.313 OA
BRANCH   9  10
HETATM   10  C   UNL     1       1.724  -3.778   0.492  1.00  0.00     0.217 C 
BRANCH  10  11
HETATM   11  C   UNL     1       1.871  -5.188  -0.018  1.00  0.00    -0.034 A 
HETATM   12  C   UNL     1       3.095  -5.610  -0.565  1.00  0.00     0.009 A 
HETATM   13  C   UNL     1       3.317  -6.955  -0.863  1.00  0.00     0.001 A 
HETATM   14  C   UNL     1       2.316  -7.892  -0.626  1.00  0.00     0.000 A 
HETATM   15  C   UNL     1       1.083  -7.481  -0.118  1.00  0.00     0.001 A 
HETATM   16  C   UNL     1       0.858  -6.134   0.181  1.00  0.00     0.009 A 
ENDBRANCH  10  11
ENDBRANCH   9  10
ENDBRANCH   7   9
ENDBRANCH   2   7
BRANCH   1  17
HETATM   17  C   UNL     1      -2.650  -0.733   0.195  1.00  0.00     0.294 C 
HETATM   18  O   UNL     1      -3.453  -0.248   0.976  1.00  0.00    -0.259 OA
BRANCH  17  19
HETATM   19  O   UNL     1      -2.982  -1.589  -0.806  1.00  0.00    -0.317 OA
BRANCH  19  20
HETATM   20  C   UNL     1      -2.798  -2.958  -0.454  1.00  0.00     0.179 C 
BRANCH  20  21
HETATM   21  C   UNL     1      -3.951  -3.852  -0.889  1.00  0.00     0.026 C 
BRANCH  21  22
HETATM   22  C   UNL     1      -3.509  -5.308  -0.715  1.00  0.00    -0.002 C 
HETATM   23  C   UNL     1      -4.620  -6.307  -0.959  1.00  0.00     0.005 C 
ENDBRANCH  21  22
ENDBRANCH  20  21
ENDBRANCH  19  20
ENDBRANCH  17  19
ENDBRANCH   1  17
TORSDOF 9
