REMARK  6 active torsions:
REMARK  status: ('A' for Active; 'I' for Inactive)
REMARK    1  A    between atoms: C_2  and  C_3 
REMARK    2  A    between atoms: C_2  and  O_10 
REMARK    3  A    between atoms: C_6  and  O_9 
REMARK    4  A    between atoms: O_10  and  C_11 
REMARK    5  A    between atoms: C_11  and  C_12 
REMARK    6  A    between atoms: C_12  and  C_13 
ROOT
HETATM    1  C   UNL     1       3.184   0.612   1.143  1.00  0.00     0.039 A 
HETATM    2  C   UNL     1       3.140   1.997   1.337  1.00  0.00     0.020 A 
HETATM    3  C   UNL     1       3.777   2.564   2.444  1.00  0.00     0.037 A 
HETATM    4  C   UNL     1       4.437   1.736   3.349  1.00  0.00     0.065 A 
HETATM    5  C   UNL     1       4.462   0.355   3.175  1.00  0.00     0.037 A 
HETATM    6  C   UNL     1       3.826  -0.215   2.073  1.00  0.00     0.020 A 
ENDROOT
BRANCH   1   7
HETATM    7  C   UNL     1       2.492   0.036  -0.030  1.00  0.00     0.293 C 
HETATM    8  O   UNL     1       1.319   0.306  -0.248  1.00  0.00    -0.259 OA
BRANCH   7   9
HETATM    9  O   UNL     1       3.208  -0.806  -0.816  1.00  0.00    -0.318 OA
BRANCH   9  10
HETATM   10  C   UNL     1       4.634  -0.646  -0.969  1.00  0.00     0.179 C 
BRANCH  10  11
HETATM   11  C   UNL     1       5.019  -1.174  -2.347  1.00  0.00     0.026 C 
BRANCH  11  12
HETATM   12  C   UNL     1       6.522  -1.072  -2.587  1.00  0.00    -0.002 C 
HETATM   13  C   UNL     1       6.907  -1.604  -3.958  1.00  0.00     0.005 C 
ENDBRANCH  11  12
ENDBRANCH  10  11
ENDBRANCH   9  10
ENDBRANCH   7   9
ENDBRANCH   1   7
BRANCH   4  14
HETATM   14  O   UNL     1       5.073   2.246   4.441  1.00  0.00    -0.361 OA
HETATM   15  H   UNL     1       4.945   3.209   4.459  1.00  0.00     0.217 HD
ENDBRANCH   4  14
TORSDOF 6
