REMARK  5 active torsions:
REMARK  status: ('A' for Active; 'I' for Inactive)
REMARK    1  A    between atoms: O_1  and  C_2 
REMARK    2  A    between atoms: C_3  and  N_15 
REMARK    3  A    between atoms: C_5  and  N_12 
REMARK    4  A    between atoms: C_7  and  C_8 
REMARK    5  A    between atoms: C_8  and  C_9 
ROOT
HETATM    1  C   UNL     1       2.379  -0.127  -0.184  1.00  0.00     0.105 A 
HETATM    2  C   UNL     1       3.123  -1.331  -0.139  1.00  0.00     0.138 A 
HETATM    3  C   UNL     1       4.521  -1.314  -0.029  1.00  0.00     0.075 A 
HETATM    4  C   UNL     1       5.169  -0.085   0.083  1.00  0.00     0.105 A 
HETATM    5  C   UNL     1       4.434   1.107   0.101  1.00  0.00     0.046 A 
HETATM    6  C   UNL     1       3.031   1.122  -0.076  1.00  0.00    -0.016 A 
ENDROOT
BRANCH   6   7
HETATM    7  C   UNL     1       2.358   2.503  -0.128  1.00  0.00     0.017 C 
HETATM    8  C   UNL     1       0.839   2.543   0.107  1.00  0.00     0.015 C 
BRANCH   7   9
HETATM    9  C   UNL     1       2.648   3.270  -1.447  1.00  0.00     0.004 C 
HETATM   10  C   UNL     1       4.072   3.794  -1.601  1.00  0.00     0.006 C 
ENDBRANCH   7   9
ENDBRANCH   6   7
BRANCH   1  11
HETATM   11  O   UNL     1       1.020  -0.119  -0.338  1.00  0.00    -0.358 OA
HETATM   12  H   UNL     1       0.647  -1.025  -0.293  1.00  0.00     0.217 HD
ENDBRANCH   1  11
BRANCH   2  13
HETATM   13  N   UNL     1       2.458  -2.640  -0.203  1.00  0.00    -0.113 N 
HETATM   14  O   UNL     1       3.168  -3.652  -0.246  1.00  0.00    -0.532 OA
HETATM   15  O   UNL     1       1.216  -2.654  -0.199  1.00  0.00    -0.532 OA
ENDBRANCH   2  13
BRANCH   4  16
HETATM   16  N   UNL     1       6.637  -0.036   0.155  1.00  0.00    -0.116 N 
HETATM   17  O   UNL     1       7.175   1.080   0.183  1.00  0.00    -0.532 OA
HETATM   18  O   UNL     1       7.246  -1.113   0.171  1.00  0.00    -0.532 OA
ENDBRANCH   4  16
TORSDOF 5
