REMARK  0 active torsions:
REMARK  status: ('A' for Active; 'I' for Inactive)
ROOT
HETATM    1  O   UNL     1       1.284   0.117   0.715  1.00  0.00    -0.265 OA
HETATM    2  C   UNL     1       2.380   0.097   0.179  1.00  0.00     0.258 C 
HETATM    3  C   UNL     1       3.139  -1.140  -0.193  1.00  0.00     0.113 C 
HETATM    4  C   UNL     1       4.515  -0.602  -0.492  1.00  0.00     0.037 C 
HETATM    5  C   UNL     1       4.245   0.820  -0.909  1.00  0.00     0.179 C 
HETATM    6  O   UNL     1       3.068   1.210  -0.204  1.00  0.00    -0.321 OA
ENDROOT
TORSDOF 0
