REMARK  3 active torsions:
REMARK  status: ('A' for Active; 'I' for Inactive)
REMARK    1  A    between atoms: O_1  and  C_5 
REMARK    2  A    between atoms: C_4  and  O_12 
REMARK    3  A    between atoms: C_6  and  C_8 
ROOT
HETATM    1  C   UNL     1       4.516   1.135  -0.228  1.00  0.00     0.040 A 
HETATM    2  C   UNL     1       3.138   1.156  -0.038  1.00  0.00     0.039 A 
HETATM    3  C   UNL     1       5.187  -0.086  -0.380  1.00  0.00     0.072 A 
HETATM    4  C   UNL     1       2.448  -0.045  -0.002  1.00  0.00     0.066 A 
HETATM    5  C   UNL     1       4.510  -1.322  -0.343  1.00  0.00    -0.015 A 
HETATM    6  C   UNL     1       3.114  -1.262  -0.149  1.00  0.00     0.047 A 
ENDROOT
BRANCH   5   7
HETATM    7  C   UNL     1       5.237  -2.673  -0.516  1.00  0.00    -0.021 C 
HETATM    8  C   UNL     1       5.878  -2.753  -1.918  1.00  0.00     0.019 C 
HETATM    9  C   UNL     1       6.323  -2.853   0.568  1.00  0.00     0.019 C 
HETATM   10  C   UNL     1       4.300  -3.902  -0.393  1.00  0.00     0.019 C 
ENDBRANCH   5   7
BRANCH   3  11
HETATM   11  O   UNL     1       6.540  -0.057  -0.576  1.00  0.00    -0.360 OA
HETATM   12  H   UNL     1       6.847   0.864  -0.566  1.00  0.00     0.217 HD
ENDBRANCH   3  11
BRANCH   4  13
HETATM   13  O   UNL     1       1.096  -0.081   0.177  1.00  0.00    -0.361 OA
HETATM   14  H   UNL     1       0.767   0.829   0.250  1.00  0.00     0.217 HD
ENDBRANCH   4  13
TORSDOF 3
