REMARK  0 active torsions:
REMARK  status: ('A' for Active; 'I' for Inactive)
ROOT
HETATM    1  O   UNL     1       0.957  -0.019   0.018  1.00  0.00    -0.265 OA
HETATM    2  C   UNL     1       2.185  -0.007   0.017  1.00  0.00     0.282 A 
HETATM    3  C   UNL     1       2.975  -1.192   0.018  1.00  0.00     0.151 A 
HETATM    4  C   UNL     1       4.340  -1.171   0.017  1.00  0.00     0.167 A 
HETATM    5  N   UNL     1       4.871  -2.424   0.019  1.00  0.00    -0.223 NA
HETATM    6  C   UNL     1       3.825  -3.223   0.020  1.00  0.00     0.212 A 
HETATM    7  N   UNL     1       2.647  -2.519   0.019  1.00  0.00    -0.338 N 
HETATM    8  C   UNL     1       1.342  -3.128   0.020  1.00  0.00     0.157 C 
HETATM    9  N   UNL     1       5.047   0.007   0.015  1.00  0.00    -0.286 N 
HETATM   10  C   UNL     1       4.358   1.219   0.015  1.00  0.00     0.332 A 
HETATM   11  O   UNL     1       4.956   2.300   0.014  1.00  0.00    -0.246 OA
HETATM   12  N   UNL     1       2.952   1.162   0.014  1.00  0.00    -0.269 N 
HETATM   13  C   UNL     1       2.260   2.436   0.012  1.00  0.00     0.164 C 
HETATM   14  C   UNL     1       6.495   0.030   0.015  1.00  0.00     0.163 C 
ENDROOT
TORSDOF 0
