REMARK  2 active torsions:
REMARK  status: ('A' for Active; 'I' for Inactive)
REMARK    1  A    between atoms: C_2  and  O_3 
REMARK       I    between atoms: C_2  and  N_14 
REMARK    2  A    between atoms: O_3  and  C_4 
ROOT
HETATM    1  C   UNL     1       4.513   1.313  -0.321  1.00  0.00     0.092 A 
HETATM    2  C   UNL     1       5.186   1.652   0.872  1.00  0.00     0.008 A 
HETATM    3  C   UNL     1       6.596   1.741   0.822  1.00  0.00    -0.023 A 
HETATM    4  C   UNL     1       7.261   1.545  -0.404  1.00  0.00     0.012 A 
HETATM    5  C   UNL     1       6.553   1.267  -1.578  1.00  0.00     0.004 A 
HETATM    6  C   UNL     1       5.170   1.152  -1.541  1.00  0.00     0.038 A 
HETATM    7  C   UNL     1       7.310   2.012   2.000  1.00  0.00     0.012 A 
HETATM    8  C   UNL     1       6.646   2.208   3.212  1.00  0.00     0.001 A 
HETATM    9  C   UNL     1       5.257   2.147   3.262  1.00  0.00     0.001 A 
HETATM   10  C   UNL     1       4.532   1.873   2.102  1.00  0.00     0.015 A 
ENDROOT
BRANCH   1  11
HETATM   11  O   UNL     1       3.109   1.150  -0.325  1.00  0.00    -0.261 OA
BRANCH  11  12
HETATM   12  C   UNL     1       2.356   0.001  -0.038  1.00  0.00     0.365 C 
HETATM   13  O   UNL     1       1.126   0.059  -0.059  1.00  0.00    -0.238 OA
HETATM   14  N   UNL     1       2.936  -1.200   0.262  1.00  0.00    -0.341 N 
HETATM   15  C   UNL     1       4.298  -1.677   0.286  1.00  0.00     0.151 C 
HETATM   16  H   UNL     1       2.223  -1.908   0.377  1.00  0.00     0.164 HD
ENDBRANCH  11  12
ENDBRANCH   1  11
TORSDOF 2
