REMARK  2 active torsions:
REMARK  status: ('A' for Active; 'I' for Inactive)
REMARK       I    between atoms: C_2  and  N_3 
REMARK    1  A    between atoms: C_2  and  O_5 
REMARK    2  A    between atoms: O_5  and  C_6 
ROOT
HETATM    1  C   UNL     1       4.420  -0.022   1.264  1.00  0.00     0.114 A 
HETATM    2  C   UNL     1       4.957  -1.279   0.982  1.00  0.00     0.040 A 
HETATM    3  C   UNL     1       6.349  -1.448   0.973  1.00  0.00     0.003 A 
HETATM    4  C   UNL     1       7.198  -0.373   1.259  1.00  0.00     0.010 A 
HETATM    5  C   UNL     1       6.633   0.860   1.552  1.00  0.00    -0.019 A 
HETATM    6  C   UNL     1       7.307   2.128   1.907  1.00  0.00     0.079 A 
HETATM    7  C   UNL     1       5.263   1.032   1.559  1.00  0.00     0.110 A 
HETATM    8  O   UNL     1       4.861   2.302   1.867  1.00  0.00    -0.337 OA
HETATM    9  C   UNL     1       6.085   3.063   2.076  1.00  0.00     0.065 A 
HETATM   10  C   UNL     1       6.031   3.651   3.490  1.00  0.00     0.046 C 
HETATM   11  C   UNL     1       6.102   4.192   1.042  1.00  0.00     0.046 C 
ENDROOT
BRANCH   1  12
HETATM   12  O   UNL     1       3.029   0.154   1.301  1.00  0.00    -0.259 OA
BRANCH  12  13
HETATM   13  C   UNL     1       2.249   0.190   0.137  1.00  0.00     0.365 C 
HETATM   14  O   UNL     1       1.025   0.129   0.206  1.00  0.00    -0.238 OA
HETATM   15  N   UNL     1       2.937   0.307  -1.048  1.00  0.00    -0.341 N 
HETATM   16  C   UNL     1       2.273   0.406  -2.322  1.00  0.00     0.151 C 
HETATM   17  H   UNL     1       3.937   0.439  -1.015  1.00  0.00     0.164 HD
ENDBRANCH  12  13
ENDBRANCH   1  12
TORSDOF 2
