REMARK  3 active torsions:
REMARK  status: ('A' for Active; 'I' for Inactive)
REMARK    1  A    between atoms: N_5  and  S_8 
REMARK    2  A    between atoms: S_8  and  C_9 
REMARK    3  A    between atoms: C_9  and  C_10 
ROOT
HETATM    1  C   UNL     1      -0.178  -0.758   0.771  1.00  0.00     0.096 C 
HETATM    2  C   UNL     1      -0.212   0.771   0.793  1.00  0.00     0.096 C 
HETATM    3  C   UNL     1      -1.507   1.118   0.089  1.00  0.00     0.242 C 
HETATM    4  O   UNL     1      -1.846   2.266  -0.173  1.00  0.00    -0.272 OA
HETATM    5  N   UNL     1      -2.190  -0.040  -0.197  1.00  0.00    -0.220 N 
HETATM    6  C   UNL     1      -1.389  -1.137  -0.048  1.00  0.00     0.242 C 
HETATM    7  O   UNL     1      -1.599  -2.264  -0.477  1.00  0.00    -0.272 OA
HETATM    8  C   UNL     1       0.972   1.540   0.200  1.00  0.00     0.042 C 
HETATM    9  C   UNL     1       2.004   0.720  -0.500  1.00  0.00    -0.030 C 
HETATM   10  C   UNL     1       2.050  -0.614  -0.472  1.00  0.00    -0.030 C 
HETATM   11  C   UNL     1       1.076  -1.468   0.262  1.00  0.00     0.042 C 
ENDROOT
BRANCH   5  12
HETATM   12  S   UNL     1      -3.651   0.010  -1.070  1.00  0.00     0.004 SA
BRANCH  12  13
HETATM   13  C   UNL     1      -4.528  -1.613  -0.809  1.00  0.00     0.209 C 
HETATM   14 CL   UNL     1      -4.292  -2.222   0.881  1.00  0.00    -0.085 Cl
HETATM   15 CL   UNL     1      -6.319  -1.203  -0.878  1.00  0.00    -0.085 Cl
BRANCH  13  16
HETATM   16  C   UNL     1      -4.185  -2.663  -1.910  1.00  0.00     0.229 C 
HETATM   17 CL   UNL     1      -5.048  -4.233  -1.714  1.00  0.00    -0.104 Cl
HETATM   18 CL   UNL     1      -4.528  -2.079  -3.589  1.00  0.00    -0.104 Cl
ENDBRANCH  13  16
ENDBRANCH  12  13
ENDBRANCH   5  12
TORSDOF 3
