REMARK  2 active torsions:
REMARK  status: ('A' for Active; 'I' for Inactive)
REMARK    1  A    between atoms: N_3  and  S_12 
REMARK    2  A    between atoms: S_12  and  C_13 
ROOT
HETATM    1  O   UNL     1       1.085   0.012  -0.026  1.00  0.00    -0.272 OA
HETATM    2  C   UNL     1       2.304   0.042   0.078  1.00  0.00     0.242 C 
HETATM    3  N   UNL     1       3.204  -0.881  -0.394  1.00  0.00    -0.219 N 
HETATM    4  C   UNL     1       4.499  -0.463  -0.258  1.00  0.00     0.242 C 
HETATM    5  O   UNL     1       5.496  -0.995  -0.725  1.00  0.00    -0.272 OA
HETATM    6  C   UNL     1       4.527   0.744   0.648  1.00  0.00     0.096 C 
HETATM    7  C   UNL     1       3.058   1.161   0.767  1.00  0.00     0.096 C 
HETATM    8  C   UNL     1       2.640   2.526   0.212  1.00  0.00     0.042 C 
HETATM    9  C   UNL     1       3.692   3.285  -0.527  1.00  0.00    -0.030 C 
HETATM   10  C   UNL     1       4.984   2.950  -0.548  1.00  0.00    -0.030 C 
HETATM   11  C   UNL     1       5.550   1.770   0.167  1.00  0.00     0.042 C 
ENDROOT
BRANCH   3  12
HETATM   12  S   UNL     1       2.721  -2.216  -1.329  1.00  0.00     0.018 SA
BRANCH  12  13
HETATM   13  C   UNL     1       3.768  -3.610  -0.767  1.00  0.00     0.257 C 
HETATM   14 CL   UNL     1       5.172  -3.831  -1.850  1.00  0.00    -0.070 Cl
HETATM   15 CL   UNL     1       4.286  -3.495   0.939  1.00  0.00    -0.070 Cl
HETATM   16 CL   UNL     1       2.777  -5.119  -0.899  1.00  0.00    -0.070 Cl
ENDBRANCH  12  13
ENDBRANCH   3  12
TORSDOF 2
