REMARK  2 active torsions:
REMARK  status: ('A' for Active; 'I' for Inactive)
REMARK    1  A    between atoms: O_1  and  C_2 
REMARK    2  A    between atoms: C_3  and  O_8 
ROOT
HETATM    1  C   UNL     1       2.361  -0.110  -0.044  1.00  0.00     0.098 A 
HETATM    2  C   UNL     1       3.073   1.087  -0.067  1.00  0.00     0.098 A 
HETATM    3  C   UNL     1       4.460   1.081  -0.112  1.00  0.00     0.039 A 
HETATM    4  C   UNL     1       5.136  -0.140  -0.169  1.00  0.00     0.003 A 
HETATM    5  C   UNL     1       4.418  -1.341  -0.180  1.00  0.00     0.003 A 
HETATM    6  C   UNL     1       3.023  -1.327  -0.117  1.00  0.00     0.039 A 
ENDROOT
BRANCH   1   7
HETATM    7  O   UNL     1       1.002  -0.103   0.085  1.00  0.00    -0.358 OA
HETATM    8  H   UNL     1       0.797   0.630   0.695  1.00  0.00     0.217 HD
ENDBRANCH   1   7
BRANCH   2   9
HETATM    9  O   UNL     1       2.416   2.283  -0.079  1.00  0.00    -0.358 OA
HETATM   10  H   UNL     1       1.627   2.146  -0.634  1.00  0.00     0.217 HD
ENDBRANCH   2   9
TORSDOF 2
