REMARK  4 active torsions:
REMARK  status: ('A' for Active; 'I' for Inactive)
REMARK    1  A    between atoms: C_5  and  C_9 
REMARK    2  A    between atoms: C_6  and  C_8 
REMARK    3  A    between atoms: C_8  and  O_11 
REMARK    4  A    between atoms: C_9  and  O_13 
ROOT
HETATM    1  C   UNL     1      -0.980  -0.726  -0.587  1.00  0.00     0.059 C 
HETATM    2  C   UNL     1       0.108  -1.381  -1.013  1.00  0.00     0.059 C 
HETATM    3  C   UNL     1      -0.574   0.032   0.652  1.00  0.00     0.127 C 
HETATM    4  C   UNL     1       1.232  -1.136   0.007  1.00  0.00     0.127 C 
HETATM    5  C   UNL     1       0.453   1.151   0.233  1.00  0.00     0.132 C 
HETATM    6  C   UNL     1       1.690   0.324  -0.232  1.00  0.00     0.132 C 
HETATM    7  C   UNL     1       0.341  -1.073   1.286  1.00  0.00     0.167 C 
HETATM    8 CL   UNL     1       0.225  -2.394  -2.364  1.00  0.00    -0.085 Cl
HETATM    9 CL   UNL     1      -2.557  -0.788  -1.202  1.00  0.00    -0.085 Cl
HETATM   10 CL   UNL     1      -0.502  -2.642   1.672  1.00  0.00    -0.097 Cl
HETATM   11 CL   UNL     1       1.129  -0.596   2.814  1.00  0.00    -0.097 Cl
HETATM   12 CL   UNL     1       2.523  -2.322  -0.015  1.00  0.00    -0.108 Cl
HETATM   13 CL   UNL     1      -1.851   0.613   1.709  1.00  0.00    -0.108 Cl
ENDROOT
BRANCH   5  14
HETATM   14  C   UNL     1       0.018   2.053  -0.904  1.00  0.00     0.147 C 
HETATM   15  O   UNL     1      -1.098   2.065  -1.390  1.00  0.00    -0.650 OA
BRANCH  14  16
HETATM   16  O   UNL     1       0.994   2.871  -1.358  1.00  0.00    -0.776 OA
HETATM   17  H   UNL     1       1.874   2.832  -0.919  1.00  0.00     0.167 HD
ENDBRANCH  14  16
ENDBRANCH   5  14
BRANCH   6  18
HETATM   18  C   UNL     1       2.887   0.875   0.509  1.00  0.00     0.147 C 
HETATM   19  O   UNL     1       3.478   0.426   1.461  1.00  0.00    -0.650 OA
BRANCH  18  20
HETATM   20  O   UNL     1       3.213   2.097   0.014  1.00  0.00    -0.776 OA
HETATM   21  H   UNL     1       3.990   2.368   0.563  1.00  0.00     0.167 HD
ENDBRANCH  18  20
ENDBRANCH   6  18
TORSDOF 4
