REMARK  3 active torsions:
REMARK  status: ('A' for Active; 'I' for Inactive)
REMARK    1  A    between atoms: C_3  and  N_12 
REMARK    2  A    between atoms: C_7  and  C_8 
REMARK    3  A    between atoms: C_8  and  O_10 
ROOT
HETATM    1 CL   UNL     1       0.887  -0.230   0.070  1.00  0.00    -0.081 Cl
HETATM    2  C   UNL     1       2.620  -0.081   0.040  1.00  0.00     0.072 A 
HETATM    3  C   UNL     1       3.365  -1.289   0.015  1.00  0.00     0.030 A 
HETATM    4  C   UNL     1       4.761  -1.231   0.053  1.00  0.00     0.048 A 
HETATM    5  C   UNL     1       5.414  -0.004   0.023  1.00  0.00     0.036 A 
HETATM    6  C   UNL     1       4.684   1.180  -0.004  1.00  0.00     0.044 A 
HETATM    7  C   UNL     1       3.275   1.164   0.013  1.00  0.00     0.062 A 
HETATM    8 CL   UNL     1       7.133   0.049   0.034  1.00  0.00    -0.084 Cl
ENDROOT
BRANCH   7   9
HETATM    9  C   UNL     1       2.633   2.515   0.005  1.00  0.00     0.177 C 
HETATM   10  O   UNL     1       3.305   3.536  -0.020  1.00  0.00    -0.646 OA
BRANCH   9  11
HETATM   11  O   UNL     1       1.290   2.577   0.022  1.00  0.00    -0.773 OA
HETATM   12  H   UNL     1       0.821   1.723   0.055  1.00  0.00     0.167 HD
ENDBRANCH   9  11
ENDBRANCH   7   9
BRANCH   3  13
HETATM   13  N   UNL     1       2.747  -2.544   0.184  1.00  0.00    -0.301 NA
HETATM   14  H   UNL     1       1.769  -2.561  -0.102  1.00  0.00     0.124 HD
HETATM   15  H   UNL     1       3.273  -3.334  -0.180  1.00  0.00     0.124 HD
ENDBRANCH   3  13
TORSDOF 3
