REMARK  1 active torsions:
REMARK  status: ('A' for Active; 'I' for Inactive)
REMARK    1  A    between atoms: N_2  and  C_3 
ROOT
HETATM    1  C   UNL     1       2.962   1.059   0.646  1.00  0.00     0.102 A 
HETATM    2  C   UNL     1       2.388   2.331   0.514  1.00  0.00     0.038 A 
HETATM    3  C   UNL     1       3.054   3.443   1.036  1.00  0.00     0.026 A 
HETATM    4  C   UNL     1       4.280   3.279   1.684  1.00  0.00     0.034 A 
HETATM    5  C   UNL     1       4.851   2.011   1.817  1.00  0.00     0.026 A 
HETATM    6  C   UNL     1       4.193   0.893   1.296  1.00  0.00     0.038 A 
HETATM    7 CL   UNL     1       5.095   4.651   2.326  1.00  0.00    -0.084 Cl
ENDROOT
BRANCH   1   8
HETATM    8  N   UNL     1       2.267  -0.111   0.099  1.00  0.00    -0.116 N 
HETATM    9  O   UNL     1       1.075   0.022  -0.212  1.00  0.00    -0.532 OA
HETATM   10  O   UNL     1       2.915  -1.161  -0.019  1.00  0.00    -0.532 OA
ENDBRANCH   1   8
TORSDOF 1
