REMARK  2 active torsions:
REMARK  status: ('A' for Active; 'I' for Inactive)
REMARK    1  A    between atoms: N_1  and  C_2 
REMARK    2  A    between atoms: C_3  and  N_9 
ROOT
HETATM    1  C   UNL     1       2.345  -0.089  -0.073  1.00  0.00     0.028 A 
HETATM    2  C   UNL     1       3.067   1.126  -0.145  1.00  0.00     0.027 A 
HETATM    3  C   UNL     1       4.466   1.087  -0.231  1.00  0.00     0.027 A 
HETATM    4  C   UNL     1       5.147  -0.129  -0.302  1.00  0.00     0.026 A 
HETATM    5  C   UNL     1       4.433  -1.319  -0.228  1.00  0.00     0.035 A 
HETATM    6  C   UNL     1       3.047  -1.303  -0.088  1.00  0.00     0.048 A 
HETATM    7 CL   UNL     1       5.271  -2.822  -0.275  1.00  0.00    -0.084 Cl
ENDROOT
BRANCH   1   8
HETATM    8  N   UNL     1       0.970  -0.111   0.230  1.00  0.00    -0.301 NA
HETATM    9  H   UNL     1       0.468   0.720  -0.050  1.00  0.00     0.124 HD
HETATM   10  H   UNL     1       0.499  -0.965  -0.049  1.00  0.00     0.124 HD
ENDBRANCH   1   8
BRANCH   2  11
HETATM   11  N   UNL     1       2.444   2.367   0.083  1.00  0.00    -0.301 NA
HETATM   12  H   UNL     1       1.462   2.389  -0.148  1.00  0.00     0.124 HD
HETATM   13  H   UNL     1       2.953   3.159  -0.293  1.00  0.00     0.124 HD
ENDBRANCH   2  11
TORSDOF 2
