REMARK  6 active torsions:
REMARK  status: ('A' for Active; 'I' for Inactive)
REMARK    1  A    between atoms: C_4  and  N_13 
REMARK    2  A    between atoms: C_6  and  S_8 
REMARK    3  A    between atoms: S_8  and  C_9 
REMARK    4  A    between atoms: C_9  and  C_10 
REMARK    5  A    between atoms: C_10  and  O_12 
REMARK    6  A    between atoms: N_13  and  C_14 
ROOT
HETATM    1 CL   UNL     1       1.467   0.643  -1.339  1.00  0.00    -0.062 Cl
HETATM    2  C   UNL     1       3.099   0.411  -0.863  1.00  0.00     0.132 C 
HETATM    3  C   UNL     1       3.654  -0.838  -0.867  1.00  0.00     0.095 C 
HETATM    4  C   UNL     1       4.905  -0.940  -0.303  1.00  0.00     0.134 C 
HETATM    5  N   UNL     1       5.599   0.152   0.075  1.00  0.00    -0.205 NA
HETATM    6  C   UNL     1       4.966   1.338  -0.006  1.00  0.00     0.192 C 
HETATM    7  N   UNL     1       3.716   1.514  -0.437  1.00  0.00    -0.211 NA
ENDROOT
BRANCH   4   8
HETATM    8  N   UNL     1       5.499  -2.185  -0.062  1.00  0.00    -0.340 N 
HETATM    9  H   UNL     1       6.452  -2.089   0.268  1.00  0.00     0.167 HD
BRANCH   8  10
HETATM   10  C   UNL     1       4.950  -3.474   0.121  1.00  0.00     0.040 C 
HETATM   11  C   UNL     1       5.728  -4.561  -0.317  1.00  0.00     0.030 C 
HETATM   12  C   UNL     1       5.219  -5.859  -0.338  1.00  0.00     0.003 C 
HETATM   13  C   UNL     1       3.894  -6.086   0.015  1.00  0.00     0.007 C 
HETATM   14  C   UNL     1       3.095  -5.034   0.477  1.00  0.00    -0.054 C 
HETATM   15  C   UNL     1       3.655  -3.740   0.629  1.00  0.00    -0.029 C 
HETATM   16  C   UNL     1       1.634  -5.292   0.744  1.00  0.00     0.049 C 
HETATM   17  C   UNL     1       2.871  -2.720   1.422  1.00  0.00     0.051 C 
ENDBRANCH   8  10
ENDBRANCH   4   8
BRANCH   6  18
HETATM   18  S   UNL     1       5.784   2.791   0.587  1.00  0.00    -0.080 SA
BRANCH  18  19
HETATM   19  C   UNL     1       7.468   2.465   0.003  1.00  0.00     0.192 C 
BRANCH  19  20
HETATM   20  C   UNL     1       8.282   3.745  -0.065  1.00  0.00     0.149 C 
HETATM   21  O   UNL     1       7.842   4.879  -0.154  1.00  0.00    -0.649 OA
BRANCH  20  22
HETATM   22  O   UNL     1       9.621   3.513  -0.083  1.00  0.00    -0.776 OA
HETATM   23  H   UNL     1       9.880   2.575  -0.024  1.00  0.00     0.167 HD
ENDBRANCH  20  22
ENDBRANCH  19  20
ENDBRANCH  18  19
ENDBRANCH   6  18
TORSDOF 6
