REMARK  1 active torsions:
REMARK  status: ('A' for Active; 'I' for Inactive)
REMARK    1  A    between atoms: N_1  and  C_2 
ROOT
HETATM    1  C   UNL     1       2.422   0.020  -0.108  1.00  0.00     0.005 A 
HETATM    2  C   UNL     1       3.119   1.232  -0.130  1.00  0.00     0.025 A 
HETATM    3  C   UNL     1       4.508   1.253  -0.287  1.00  0.00     0.025 A 
HETATM    4  C   UNL     1       5.211   0.055  -0.379  1.00  0.00     0.034 A 
HETATM    5  C   UNL     1       4.538  -1.161  -0.296  1.00  0.00     0.025 A 
HETATM    6  C   UNL     1       3.149  -1.174  -0.139  1.00  0.00     0.025 A 
HETATM    7 CL   UNL     1       6.921   0.077  -0.568  1.00  0.00    -0.084 Cl
ENDROOT
BRANCH   1   8
HETATM    8  N   UNL     1       1.052   0.002   0.176  1.00  0.00    -0.303 NA
HETATM    9  H   UNL     1       0.560   0.840  -0.118  1.00  0.00     0.124 HD
HETATM   10  H   UNL     1       0.580  -0.845  -0.126  1.00  0.00     0.124 HD
ENDBRANCH   1   8
TORSDOF 1
