REMARK  2 active torsions:
REMARK  status: ('A' for Active; 'I' for Inactive)
REMARK    1  A    between atoms: C_2  and  C_3 
REMARK    2  A    between atoms: C_2  and  C_9 
ROOT
HETATM    1  C   UNL     1       3.145  -0.075   1.198  1.00  0.00     0.011 A 
HETATM    2  C   UNL     1       3.594   1.120   1.766  1.00  0.00     0.015 A 
HETATM    3  C   UNL     1       4.332   1.075   2.950  1.00  0.00     0.001 A 
HETATM    4  C   UNL     1       4.612  -0.153   3.554  1.00  0.00     0.000 A 
HETATM    5  C   UNL     1       4.148  -1.341   2.986  1.00  0.00     0.001 A 
HETATM    6  C   UNL     1       3.404  -1.305   1.808  1.00  0.00     0.015 A 
ENDROOT
BRANCH   1   7
HETATM    7  C   UNL     1       2.361  -0.054  -0.049  1.00  0.00     0.173 C 
HETATM    8  O   UNL     1       1.143  -0.220   0.040  1.00  0.00    -0.291 OA
BRANCH   7   9
HETATM    9  C   UNL     1       3.033   0.195  -1.379  1.00  0.00     0.198 C 
HETATM   10 CL   UNL     1       4.798   0.041  -1.345  1.00  0.00    -0.122 Cl
ENDBRANCH   7   9
ENDBRANCH   1   7
TORSDOF 2
