REMARK  1 active torsions:
REMARK  status: ('A' for Active; 'I' for Inactive)
REMARK       I    between atoms: C_2  and  N_3 
REMARK       I    between atoms: C_2  and  N_6 
REMARK    1  A    between atoms: N_6  and  C_7 
ROOT
HETATM    1  C   UNL     1       4.639   0.990  -0.530  1.00  0.00     0.036 A 
HETATM    2  C   UNL     1       5.249   2.242  -0.678  1.00  0.00     0.031 A 
HETATM    3  C   UNL     1       6.552   2.344  -1.174  1.00  0.00     0.026 A 
HETATM    4  C   UNL     1       7.245   1.193  -1.538  1.00  0.00     0.034 A 
HETATM    5  C   UNL     1       6.641  -0.056  -1.419  1.00  0.00     0.026 A 
HETATM    6  C   UNL     1       5.338  -0.156  -0.921  1.00  0.00     0.031 A 
HETATM    7 CL   UNL     1       8.847   1.315  -2.151  1.00  0.00    -0.084 Cl
ENDROOT
BRANCH   1   8
HETATM    8  N   UNL     1       3.316   0.973  -0.046  1.00  0.00    -0.309 N 
HETATM    9  C   UNL     1       2.498  -0.076   0.259  1.00  0.00     0.322 C 
HETATM   10  O   UNL     1       1.291   0.044   0.041  1.00  0.00    -0.247 OA
HETATM   11  N   UNL     1       3.036  -1.205   0.842  1.00  0.00    -0.343 N 
HETATM   12  C   UNL     1       4.041  -1.104   1.893  1.00  0.00     0.154 C 
HETATM   13  C   UNL     1       2.182  -2.376   0.916  1.00  0.00     0.154 C 
HETATM   14  H   UNL     1       2.786   1.825  -0.185  1.00  0.00     0.170 HD
ENDBRANCH   1   8
TORSDOF 1
