REMARK  0 active torsions:
REMARK  status: ('A' for Active; 'I' for Inactive)
ROOT
HETATM    1 CL   UNL     1       0.991  -0.125  -0.008  1.00  0.00    -0.081 Cl
HETATM    2  C   UNL     1       2.732  -0.096  -0.005  1.00  0.00     0.079 A 
HETATM    3  C   UNL     1       3.450  -1.306  -0.004  1.00  0.00     0.091 A 
HETATM    4  C   UNL     1       4.856  -1.278  -0.001  1.00  0.00     0.080 A 
HETATM    5  C   UNL     1       5.540  -0.047   0.002  1.00  0.00     0.080 A 
HETATM    6  C   UNL     1       4.814   1.159   0.001  1.00  0.00     0.080 A 
HETATM    7  C   UNL     1       3.408   1.139  -0.002  1.00  0.00     0.091 A 
HETATM    8  C   UNL     1       2.666   2.369  -0.002  1.00  0.00     0.103 C 
HETATM    9  N   UNL     1       2.065   3.361  -0.002  1.00  0.00    -0.191 NA
HETATM   10 CL   UNL     1       5.650   2.687   0.003  1.00  0.00    -0.081 Cl
HETATM   11 CL   UNL     1       7.280  -0.017   0.006  1.00  0.00    -0.081 Cl
HETATM   12 CL   UNL     1       5.744  -2.776   0.000  1.00  0.00    -0.081 Cl
HETATM   13  C   UNL     1       2.751  -2.561  -0.008  1.00  0.00     0.103 C 
HETATM   14  N   UNL     1       2.184  -3.573  -0.011  1.00  0.00    -0.191 NA
ENDROOT
TORSDOF 0
