REMARK  9 active torsions:
REMARK  status: ('A' for Active; 'I' for Inactive)
REMARK    1  A    between atoms: O_1  and  C_2 
REMARK    2  A    between atoms: C_2  and  C_3 
REMARK    3  A    between atoms: C_2  and  C_7 
REMARK    4  A    between atoms: C_2  and  C_11 
REMARK    5  A    between atoms: C_3  and  C_4 
REMARK    6  A    between atoms: C_4  and  O_6 
REMARK    7  A    between atoms: C_7  and  C_8 
REMARK    8  A    between atoms: C_8  and  O_10 
REMARK    9  A    between atoms: C_11  and  O_13 
ROOT
HETATM    1  C   UNL     1       2.289   0.076   0.009  1.00  0.00     0.161 C 
ENDROOT
BRANCH   1   2
HETATM    2  O   UNL     1       0.859   0.132   0.062  1.00  0.00    -0.378 OA
HETATM    3  H   UNL     1       0.575   1.040   0.285  1.00  0.00     0.211 HD
ENDBRANCH   1   2
BRANCH   1   4
HETATM    4  C   UNL     1       2.796   1.112  -1.013  1.00  0.00     0.159 C 
BRANCH   4   5
HETATM    5  C   UNL     1       2.462   0.776  -2.448  1.00  0.00     0.142 C 
HETATM    6  O   UNL     1       2.062  -0.299  -2.855  1.00  0.00    -0.650 OA
BRANCH   5   7
HETATM    7  O   UNL     1       2.740   1.801  -3.289  1.00  0.00    -0.776 OA
HETATM    8  H   UNL     1       3.041   2.626  -2.863  1.00  0.00     0.167 HD
ENDBRANCH   5   7
ENDBRANCH   4   5
ENDBRANCH   1   4
BRANCH   1   9
HETATM    9  C   UNL     1       2.814   0.340   1.442  1.00  0.00     0.159 C 
BRANCH   9  10
HETATM   10  C   UNL     1       2.335   1.639   2.031  1.00  0.00     0.142 C 
HETATM   11  O   UNL     1       1.642   2.452   1.439  1.00  0.00    -0.650 OA
BRANCH  10  12
HETATM   12  O   UNL     1       2.773   1.845   3.291  1.00  0.00    -0.776 OA
HETATM   13  H   UNL     1       3.270   1.101   3.684  1.00  0.00     0.167 HD
ENDBRANCH  10  12
ENDBRANCH   9  10
ENDBRANCH   1   9
BRANCH   1  14
HETATM   14  C   UNL     1       2.768  -1.371  -0.309  1.00  0.00     0.176 C 
HETATM   15  O   UNL     1       2.062  -2.368  -0.228  1.00  0.00    -0.648 OA
BRANCH  14  16
HETATM   16  O   UNL     1       4.102  -1.496  -0.532  1.00  0.00    -0.774 OA
HETATM   17  H   UNL     1       4.644  -0.692  -0.576  1.00  0.00     0.167 HD
ENDBRANCH  14  16
ENDBRANCH   1  14
TORSDOF 9
