REMARK  5 active torsions:
REMARK  status: ('A' for Active; 'I' for Inactive)
REMARK    1  A    between atoms: C_2  and  O_3 
REMARK    2  A    between atoms: C_2  and  C_11 
REMARK    3  A    between atoms: O_3  and  C_4 
REMARK    4  A    between atoms: C_11  and  O_13 
REMARK    5  A    between atoms: O_13  and  C_14 
ROOT
HETATM    1  C   UNL     1       0.902  -0.165  -0.132  1.00  0.00     0.057 C 
HETATM    2  C   UNL     1       2.431  -0.026  -0.092  1.00  0.00     0.148 C 
HETATM    3  C   UNL     1       2.910   0.873  -1.245  1.00  0.00     0.057 C 
ENDROOT
BRANCH   2   4
HETATM    4  O   UNL     1       2.920   0.407   1.200  1.00  0.00    -0.331 OA
BRANCH   4   5
HETATM    5  C   UNL     1       2.598   1.685   1.560  1.00  0.00     0.070 A 
HETATM    6  C   UNL     1       1.425   1.938   2.270  1.00  0.00     0.038 A 
HETATM    7  C   UNL     1       1.110   3.245   2.647  1.00  0.00     0.026 A 
HETATM    8  C   UNL     1       1.987   4.285   2.339  1.00  0.00     0.034 A 
HETATM    9  C   UNL     1       3.187   4.025   1.679  1.00  0.00     0.026 A 
HETATM   10 CL   UNL     1       1.589   5.898   2.785  1.00  0.00    -0.084 Cl
HETATM   11  C   UNL     1       3.502   2.717   1.306  1.00  0.00     0.038 A 
ENDBRANCH   4   5
ENDBRANCH   2   4
BRANCH   2  12
HETATM   12  C   UNL     1       3.033  -1.431  -0.306  1.00  0.00     0.293 C 
HETATM   13  O   UNL     1       3.759  -1.748  -1.244  1.00  0.00    -0.262 OA
BRANCH  12  14
HETATM   14  O   UNL     1       2.628  -2.302   0.668  1.00  0.00    -0.319 OA
BRANCH  14  15
HETATM   15  C   UNL     1       3.107  -3.640   0.489  1.00  0.00     0.174 C 
HETATM   16  C   UNL     1       2.553  -4.504   1.605  1.00  0.00     0.034 C 
ENDBRANCH  14  15
ENDBRANCH  12  14
ENDBRANCH   2  12
TORSDOF 5
