REMARK  6 active torsions:
REMARK  status: ('A' for Active; 'I' for Inactive)
REMARK    1  A    between atoms: C_12  and  O_14 
REMARK    2  A    between atoms: O_14  and  P_15 
REMARK    3  A    between atoms: P_15  and  O_17 
REMARK    4  A    between atoms: P_15  and  O_20 
REMARK    5  A    between atoms: O_17  and  C_18 
REMARK    6  A    between atoms: O_20  and  C_21 
ROOT
HETATM    1  C   UNL     1       0.893   0.226   0.097  1.00  0.00     0.051 C 
HETATM    2  C   UNL     1       2.401   0.254   0.124  1.00  0.00    -0.021 A 
HETATM    3  C   UNL     1       3.143   1.376   0.038  1.00  0.00     0.116 A 
HETATM    4 CL   UNL     1       2.422   2.951  -0.094  1.00  0.00    -0.077 Cl
HETATM    5  C   UNL     1       4.632   1.369   0.044  1.00  0.00     0.310 A 
HETATM    6  O   UNL     1       5.306   2.394  -0.001  1.00  0.00    -0.258 OA
HETATM    7  O   UNL     1       5.246   0.125   0.101  1.00  0.00    -0.273 OA
HETATM    8  C   UNL     1       4.501  -1.064   0.182  1.00  0.00     0.093 A 
HETATM    9  C   UNL     1       3.108  -1.038   0.224  1.00  0.00     0.006 A 
HETATM   10  C   UNL     1       2.451  -2.269   0.334  1.00  0.00     0.017 A 
HETATM   11  C   UNL     1       3.169  -3.473   0.362  1.00  0.00     0.038 A 
HETATM   12  C   UNL     1       4.561  -3.468   0.255  1.00  0.00     0.081 A 
HETATM   13  C   UNL     1       5.236  -2.255   0.195  1.00  0.00     0.075 A 
ENDROOT
BRANCH  12  14
HETATM   14  O   UNL     1       5.324  -4.613   0.130  1.00  0.00    -0.271 OA
BRANCH  14  15
HETATM   15  P   UNL     1       4.518  -6.128  -0.087  1.00  0.00     0.333 P 
HETATM   16  S   UNL     1       4.310  -5.806  -2.094  1.00  0.00    -0.007 SA
BRANCH  15  17
HETATM   17  O   UNL     1       5.976  -6.892   0.205  1.00  0.00    -0.314 OA
BRANCH  17  18
HETATM   18  C   UNL     1       7.218  -6.253  -0.101  1.00  0.00     0.174 C 
HETATM   19  C   UNL     1       8.313  -7.276  -0.317  1.00  0.00     0.034 C 
ENDBRANCH  17  18
ENDBRANCH  15  17
BRANCH  15  20
HETATM   20  O   UNL     1       3.712  -7.643  -0.304  1.00  0.00    -0.314 OA
BRANCH  20  21
HETATM   21  C   UNL     1       4.464  -8.846  -0.442  1.00  0.00     0.174 C 
HETATM   22  C   UNL     1       3.519 -10.004  -0.683  1.00  0.00     0.034 C 
ENDBRANCH  20  21
ENDBRANCH  15  20
ENDBRANCH  14  15
ENDBRANCH  12  14
TORSDOF 6
