REMARK  2 active torsions:
REMARK  status: ('A' for Active; 'I' for Inactive)
REMARK    1  A    between atoms: N_1  and  C_2 
REMARK    2  A    between atoms: C_7  and  O_8 
ROOT
HETATM    1  C   UNL     1       2.362   0.050   0.046  1.00  0.00     0.040 A 
HETATM    2  C   UNL     1       3.137   1.229  -0.021  1.00  0.00     0.032 A 
HETATM    3  C   UNL     1       4.527   1.208  -0.200  1.00  0.00    -0.060 A 
HETATM    4  C   UNL     1       5.172  -0.023  -0.273  1.00  0.00     0.009 A 
HETATM    5  C   UNL     1       4.435  -1.199  -0.146  1.00  0.00     0.039 A 
HETATM    6  C   UNL     1       3.039  -1.183   0.025  1.00  0.00     0.089 A 
HETATM    7  C   UNL     1       5.316   2.479  -0.301  1.00  0.00     0.048 C 
ENDROOT
BRANCH   1   8
HETATM    8  N   UNL     1       1.001   0.221   0.361  1.00  0.00    -0.300 NA
HETATM    9  H   UNL     1       0.648   1.142   0.120  1.00  0.00     0.124 HD
HETATM   10  H   UNL     1       0.391  -0.494  -0.005  1.00  0.00     0.124 HD
ENDBRANCH   1   8
BRANCH   6  11
HETATM   11  O   UNL     1       2.553  -2.452   0.192  1.00  0.00    -0.354 OA
HETATM   12  C   UNL     1       1.180  -2.715  -0.015  1.00  0.00     0.210 C 
ENDBRANCH   6  11
TORSDOF 2
