REMARK  3 active torsions:
REMARK  status: ('A' for Active; 'I' for Inactive)
REMARK    1  A    between atoms: C_2  and  C_3 
REMARK    2  A    between atoms: C_3  and  C_4 
REMARK    3  A    between atoms: C_3  and  C_11 
ROOT
HETATM    1  C   UNL     1       3.425   1.491   0.052  1.00  0.00     0.084 C 
ENDROOT
BRANCH   1   2
HETATM    2  C   UNL     1       2.671   0.164   0.352  1.00  0.00     0.191 C 
HETATM    3 CL   UNL     1       0.887   0.390   0.370  1.00  0.00    -0.107 Cl
HETATM    4 CL   UNL     1       3.126  -0.515   1.953  1.00  0.00    -0.107 Cl
ENDBRANCH   1   2
BRANCH   1   5
HETATM    5  C   UNL     1       4.962   1.412   0.044  1.00  0.00    -0.047 A 
HETATM    6  C   UNL     1       5.697   2.596   0.264  1.00  0.00     0.009 A 
HETATM    7  C   UNL     1       7.091   2.605   0.201  1.00  0.00     0.024 A 
HETATM    8  C   UNL     1       7.775   1.427  -0.067  1.00  0.00     0.034 A 
HETATM    9  C   UNL     1       7.074   0.241  -0.275  1.00  0.00     0.024 A 
HETATM   10 CL   UNL     1       9.493   1.434  -0.151  1.00  0.00    -0.084 Cl
HETATM   11  C   UNL     1       5.675   0.235  -0.232  1.00  0.00     0.009 A 
ENDBRANCH   1   5
BRANCH   1  12
HETATM   12  C   UNL     1       2.962   2.182  -1.241  1.00  0.00    -0.047 A 
HETATM   13  C   UNL     1       2.845   1.491  -2.458  1.00  0.00     0.009 A 
HETATM   14  C   UNL     1       2.494   2.169  -3.629  1.00  0.00     0.024 A 
HETATM   15  C   UNL     1       2.276   3.545  -3.598  1.00  0.00     0.034 A 
HETATM   16  C   UNL     1       2.387   4.248  -2.404  1.00  0.00     0.024 A 
HETATM   17 CL   UNL     1       1.883   4.383  -5.048  1.00  0.00    -0.084 Cl
HETATM   18  C   UNL     1       2.720   3.569  -1.230  1.00  0.00     0.009 A 
ENDBRANCH   1  12
TORSDOF 3
