REMARK  3 active torsions:
REMARK  status: ('A' for Active; 'I' for Inactive)
REMARK    1  A    between atoms: C_2  and  C_3 
REMARK    2  A    between atoms: C_3  and  C_4 
REMARK    3  A    between atoms: C_3  and  C_11 
ROOT
HETATM    1  C   UNL     1       3.421   0.698   1.169  1.00  0.00     0.106 C 
ENDROOT
BRANCH   1   2
HETATM    2  C   UNL     1       2.854   0.230  -0.240  1.00  0.00     0.200 C 
HETATM    3 CL   UNL     1       1.077   0.580  -0.427  1.00  0.00    -0.083 Cl
HETATM    4 CL   UNL     1       2.956  -1.566  -0.474  1.00  0.00    -0.083 Cl
HETATM    5 CL   UNL     1       3.705   0.996  -1.629  1.00  0.00    -0.083 Cl
ENDBRANCH   1   2
BRANCH   1   6
HETATM    6  C   UNL     1       4.961   0.572   1.345  1.00  0.00    -0.045 A 
HETATM    7  C   UNL     1       5.814   1.668   1.574  1.00  0.00     0.010 A 
HETATM    8  C   UNL     1       7.208   1.522   1.619  1.00  0.00     0.024 A 
HETATM    9  C   UNL     1       7.781   0.268   1.461  1.00  0.00     0.034 A 
HETATM   10  C   UNL     1       6.968  -0.845   1.311  1.00  0.00     0.024 A 
HETATM   11 CL   UNL     1       9.491   0.094   1.469  1.00  0.00    -0.084 Cl
HETATM   12  C   UNL     1       5.575  -0.695   1.277  1.00  0.00     0.010 A 
ENDBRANCH   1   6
BRANCH   1  13
HETATM   13  C   UNL     1       2.821   2.061   1.589  1.00  0.00    -0.045 A 
HETATM   14  C   UNL     1       1.851   2.107   2.608  1.00  0.00     0.010 A 
HETATM   15  C   UNL     1       1.214   3.308   2.940  1.00  0.00     0.024 A 
HETATM   16  C   UNL     1       1.555   4.483   2.276  1.00  0.00     0.034 A 
HETATM   17  C   UNL     1       2.514   4.464   1.270  1.00  0.00     0.024 A 
HETATM   18 CL   UNL     1       0.777   5.960   2.688  1.00  0.00    -0.084 Cl
HETATM   19  C   UNL     1       3.126   3.259   0.914  1.00  0.00     0.010 A 
ENDBRANCH   1  13
TORSDOF 3
