REMARK  2 active torsions:
REMARK  status: ('A' for Active; 'I' for Inactive)
REMARK    1  A    between atoms: C_3  and  C_4 
REMARK    2  A    between atoms: C_3  and  C_11 
ROOT
HETATM    1 CL   UNL     1       0.921   0.020  -0.118  1.00  0.00    -0.070 Cl
HETATM    2  C   UNL     1       2.662  -0.010  -0.120  1.00  0.00     0.115 C 
HETATM    3  C   UNL     1       3.400   0.192  -1.238  1.00  0.00     0.018 C 
HETATM    4 CL   UNL     1       3.371  -0.323   1.439  1.00  0.00    -0.070 Cl
ENDROOT
BRANCH   3   5
HETATM    5  C   UNL     1       4.883   0.181  -1.163  1.00  0.00    -0.022 A 
HETATM    6  C   UNL     1       5.598  -0.947  -1.586  1.00  0.00     0.014 A 
HETATM    7  C   UNL     1       6.994  -0.958  -1.528  1.00  0.00     0.024 A 
HETATM    8  C   UNL     1       7.677   0.159  -1.050  1.00  0.00     0.034 A 
HETATM    9  C   UNL     1       6.977   1.288  -0.630  1.00  0.00     0.024 A 
HETATM   10 CL   UNL     1       9.396   0.144  -0.979  1.00  0.00    -0.084 Cl
HETATM   11  C   UNL     1       5.581   1.302  -0.689  1.00  0.00     0.014 A 
ENDBRANCH   3   5
BRANCH   3  12
HETATM   12  C   UNL     1       2.728   0.423  -2.541  1.00  0.00    -0.022 A 
HETATM   13  C   UNL     1       2.210  -0.653  -3.277  1.00  0.00     0.014 A 
HETATM   14  C   UNL     1       1.588  -0.429  -4.508  1.00  0.00     0.024 A 
HETATM   15  C   UNL     1       1.486   0.868  -5.007  1.00  0.00     0.034 A 
HETATM   16  C   UNL     1       2.002   1.944  -4.287  1.00  0.00     0.024 A 
HETATM   17 CL   UNL     1       0.720   1.143  -6.522  1.00  0.00    -0.084 Cl
HETATM   18  C   UNL     1       2.624   1.722  -3.056  1.00  0.00     0.014 A 
ENDBRANCH   3  12
TORSDOF 2
