REMARK  5 active torsions:
REMARK  status: ('A' for Active; 'I' for Inactive)
REMARK    1  A    between atoms: C_2  and  C_3 
REMARK       I    between atoms: C_2  and  N_8 
REMARK    2  A    between atoms: C_3  and  C_4 
REMARK    3  A    between atoms: C_4  and  C_5 
REMARK    4  A    between atoms: C_5  and  O_7 
REMARK    5  A    between atoms: N_8  and  N_9 
ROOT
HETATM    1  O   UNL     1       1.099  -0.047   0.044  1.00  0.00    -0.272 OA
HETATM    2  C   UNL     1       2.325  -0.171   0.027  1.00  0.00     0.232 C 
HETATM    3  N   UNL     1       3.062   0.514  -0.913  1.00  0.00    -0.290 N 
HETATM    4  H   UNL     1       2.508   1.146  -1.485  1.00  0.00     0.183 HD
ENDROOT
BRANCH   2   5
HETATM    5  C   UNL     1       3.057  -1.081   0.989  1.00  0.00     0.114 C 
BRANCH   5   6
HETATM    6  C   UNL     1       2.083  -1.883   1.847  1.00  0.00     0.119 C 
BRANCH   6   7
HETATM    7  C   UNL     1       2.805  -2.936   2.646  1.00  0.00     0.139 C 
HETATM    8  O   UNL     1       4.018  -3.058   2.720  1.00  0.00    -0.650 OA
BRANCH   7   9
HETATM    9  O   UNL     1       1.956  -3.761   3.301  1.00  0.00    -0.776 OA
HETATM   10  H   UNL     1       1.014  -3.549   3.154  1.00  0.00     0.167 HD
ENDBRANCH   7   9
ENDBRANCH   6   7
ENDBRANCH   5   6
ENDBRANCH   2   5
BRANCH   3  11
HETATM   11  N   UNL     1       4.467   0.674  -0.862  1.00  0.00    -0.237 NA
HETATM   12  C   UNL     1       5.153  -0.395  -1.602  1.00  0.00     0.135 C 
HETATM   13  C   UNL     1       4.846   1.969  -1.448  1.00  0.00     0.135 C 
ENDBRANCH   3  11
TORSDOF 5
