REMARK  4 active torsions:
REMARK  status: ('A' for Active; 'I' for Inactive)
REMARK    1  A    between atoms: S_2  and  C_4 
REMARK    2  A    between atoms: S_2  and  C_11 
REMARK    3  A    between atoms: C_7  and  N_10 
REMARK    4  A    between atoms: C_14  and  N_17 
ROOT
HETATM    1  O   UNL     1       1.291  -0.098  -0.038  1.00  0.00    -0.217 OA
HETATM    2  S   UNL     1       2.742  -0.056  -0.008  1.00  0.00     0.206 S 
HETATM    3  O   UNL     1       3.499   0.171  -1.227  1.00  0.00    -0.217 OA
ENDROOT
BRANCH   2   4
HETATM    4  C   UNL     1       3.151   1.290   1.079  1.00  0.00     0.064 A 
HETATM    5  C   UNL     1       2.735   2.566   0.682  1.00  0.00     0.025 A 
HETATM    6  C   UNL     1       3.067   3.681   1.454  1.00  0.00     0.025 A 
HETATM    7  C   UNL     1       3.860   3.544   2.594  1.00  0.00     0.005 A 
HETATM    8  C   UNL     1       4.197   2.256   3.025  1.00  0.00     0.025 A 
HETATM    9  C   UNL     1       3.855   1.126   2.270  1.00  0.00     0.025 A 
BRANCH   7  10
HETATM   10  N   UNL     1       4.113   4.651   3.411  1.00  0.00    -0.303 NA
HETATM   11  H   UNL     1       4.108   5.537   2.913  1.00  0.00     0.124 HD
HETATM   12  H   UNL     1       4.935   4.550   3.999  1.00  0.00     0.124 HD
ENDBRANCH   7  10
ENDBRANCH   2   4
BRANCH   2  13
HETATM   13  C   UNL     1       3.291  -1.632   0.607  1.00  0.00     0.064 A 
HETATM   14  C   UNL     1       4.643  -1.848   0.880  1.00  0.00     0.025 A 
HETATM   15  C   UNL     1       5.065  -3.109   1.314  1.00  0.00     0.025 A 
HETATM   16  C   UNL     1       4.166  -4.178   1.394  1.00  0.00     0.005 A 
HETATM   17  C   UNL     1       2.811  -3.938   1.147  1.00  0.00     0.025 A 
HETATM   18  C   UNL     1       2.372  -2.676   0.737  1.00  0.00     0.025 A 
BRANCH  16  19
HETATM   19  N   UNL     1       4.576  -5.406   1.924  1.00  0.00    -0.303 NA
HETATM   20  H   UNL     1       5.560  -5.608   1.782  1.00  0.00     0.124 HD
HETATM   21  H   UNL     1       3.985  -6.186   1.649  1.00  0.00     0.124 HD
ENDBRANCH  16  19
ENDBRANCH   2  13
TORSDOF 4
