REMARK  8 active torsions:
REMARK  status: ('A' for Active; 'I' for Inactive)
REMARK    1  A    between atoms: C_2  and  C_3 
REMARK    2  A    between atoms: C_2  and  O_15 
REMARK    3  A    between atoms: C_4  and  C_9 
REMARK    4  A    between atoms: C_9  and  O_11 
REMARK    5  A    between atoms: O_11  and  C_12 
REMARK    6  A    between atoms: C_12  and  C_13 
REMARK    7  A    between atoms: O_15  and  C_16 
REMARK    8  A    between atoms: C_16  and  C_17 
ROOT
HETATM    1  C   UNL     1       2.956  -0.021  -1.178  1.00  0.00     0.055 A 
HETATM    2  C   UNL     1       3.217   1.208  -1.802  1.00  0.00     0.055 A 
HETATM    3  C   UNL     1       3.848   1.199  -3.058  1.00  0.00     0.018 A 
HETATM    4  C   UNL     1       4.190  -0.009  -3.677  1.00  0.00     0.001 A 
HETATM    5  C   UNL     1       3.908  -1.222  -3.054  1.00  0.00     0.001 A 
HETATM    6  C   UNL     1       3.285  -1.232  -1.808  1.00  0.00     0.018 A 
ENDROOT
BRANCH   1   7
HETATM    7  C   UNL     1       2.249  -0.128   0.110  1.00  0.00     0.294 C 
HETATM    8  O   UNL     1       1.028  -0.217   0.111  1.00  0.00    -0.259 OA
BRANCH   7   9
HETATM    9  O   UNL     1       3.007  -0.283   1.224  1.00  0.00    -0.314 OA
BRANCH   9  10
HETATM   10  C   UNL     1       4.418  -0.000   1.222  1.00  0.00     0.206 C 
BRANCH  10  11
HETATM   11  C   UNL     1       4.886   0.017   2.643  1.00  0.00    -0.011 C 
HETATM   12  C   UNL     1       6.169  -0.102   3.011  1.00  0.00     0.009 C 
ENDBRANCH  10  11
ENDBRANCH   9  10
ENDBRANCH   7   9
ENDBRANCH   1   7
BRANCH   2  13
HETATM   13  C   UNL     1       2.883   2.491  -1.124  1.00  0.00     0.294 C 
HETATM   14  O   UNL     1       2.592   2.580   0.056  1.00  0.00    -0.259 OA
BRANCH  13  15
HETATM   15  O   UNL     1       2.999   3.537  -1.982  1.00  0.00    -0.314 OA
BRANCH  15  16
HETATM   16  C   UNL     1       2.734   4.805  -1.369  1.00  0.00     0.206 C 
BRANCH  16  17
HETATM   17  C   UNL     1       3.164   5.882  -2.319  1.00  0.00    -0.011 C 
HETATM   18  C   UNL     1       2.919   7.184  -2.114  1.00  0.00     0.009 C 
ENDBRANCH  16  17
ENDBRANCH  15  16
ENDBRANCH  13  15
ENDBRANCH   2  13
TORSDOF 8
