REMARK  2 active torsions:
REMARK  status: ('A' for Active; 'I' for Inactive)
REMARK    1  A    between atoms: N_1  and  C_2 
REMARK    2  A    between atoms: C_6  and  N_8 
ROOT
HETATM    1  C   UNL     1       2.489  -0.025  -0.125  1.00  0.00     0.013 A 
HETATM    2  C   UNL     1       3.193   1.184  -0.249  1.00  0.00    -0.041 A 
HETATM    3  C   UNL     1       4.590   1.149  -0.397  1.00  0.00     0.010 A 
HETATM    4  C   UNL     1       5.281  -0.065  -0.422  1.00  0.00     0.024 A 
HETATM    5  C   UNL     1       4.595  -1.269  -0.317  1.00  0.00     0.007 A 
HETATM    6  C   UNL     1       3.214  -1.230  -0.092  1.00  0.00     0.047 A 
HETATM    7  C   UNL     1       2.537   2.533  -0.142  1.00  0.00     0.050 C 
ENDROOT
BRANCH   1   8
HETATM    8  N   UNL     1       1.122  -0.062   0.204  1.00  0.00    -0.302 NA
HETATM    9  H   UNL     1       0.587   0.717  -0.162  1.00  0.00     0.124 HD
HETATM   10  H   UNL     1       0.681  -0.951  -0.009  1.00  0.00     0.124 HD
ENDBRANCH   1   8
BRANCH   5  11
HETATM   11  N   UNL     1       5.299  -2.474  -0.189  1.00  0.00    -0.303 NA
HETATM   12  H   UNL     1       6.200  -2.469  -0.657  1.00  0.00     0.124 HD
HETATM   13  H   UNL     1       4.748  -3.294  -0.424  1.00  0.00     0.124 HD
ENDBRANCH   5  11
TORSDOF 2
