REMARK  7 active torsions:
REMARK  status: ('A' for Active; 'I' for Inactive)
REMARK    1  A    between atoms: P_2  and  O_3 
REMARK    2  A    between atoms: P_2  and  O_14 
REMARK    3  A    between atoms: P_2  and  O_17 
REMARK    4  A    between atoms: O_3  and  C_4 
REMARK    5  A    between atoms: C_6  and  C_11 
REMARK    6  A    between atoms: O_14  and  C_15 
REMARK    7  A    between atoms: O_17  and  C_18 
ROOT
HETATM    1  C   UNL     1       3.106   0.218  -2.589  1.00  0.00     0.176 A 
HETATM    2  N   UNL     1       1.939  -0.238  -3.060  1.00  0.00    -0.209 NA
HETATM    3  C   UNL     1       1.964  -0.895  -4.229  1.00  0.00     0.132 A 
HETATM    4  N   UNL     1       3.100  -1.169  -4.900  1.00  0.00    -0.238 NA
HETATM    5  C   UNL     1       4.256  -0.695  -4.393  1.00  0.00     0.037 A 
HETATM    6  C   UNL     1       4.304   0.059  -3.240  1.00  0.00     0.085 A 
HETATM    7  C   UNL     1       5.518  -1.061  -5.112  1.00  0.00     0.070 C 
ENDROOT
BRANCH   1   8
HETATM    8  O   UNL     1       3.079   0.928  -1.410  1.00  0.00    -0.252 OA
BRANCH   8   9
HETATM    9  P   UNL     1       2.925   0.091   0.031  1.00  0.00     0.335 P 
HETATM   10  S   UNL     1       1.027   0.091   0.031  1.00  0.00    -0.007 SA
BRANCH   9  11
HETATM   11  O   UNL     1       3.117   1.405   1.074  1.00  0.00    -0.314 OA
BRANCH  11  12
HETATM   12  C   UNL     1       2.276   1.625   2.208  1.00  0.00     0.174 C 
HETATM   13  C   UNL     1       2.953   2.482   3.256  1.00  0.00     0.034 C 
ENDBRANCH  11  12
ENDBRANCH   9  11
BRANCH   9  14
HETATM   14  O   UNL     1       4.655   0.091   0.031  1.00  0.00    -0.314 OA
BRANCH  14  15
HETATM   15  C   UNL     1       5.219  -1.198  -0.169  1.00  0.00     0.174 C 
HETATM   16  C   UNL     1       6.704  -1.046  -0.426  1.00  0.00     0.034 C 
ENDBRANCH  14  15
ENDBRANCH   9  14
ENDBRANCH   8   9
ENDBRANCH   1   8
BRANCH   3  17
HETATM   17  C   UNL     1       0.660  -1.335  -4.865  1.00  0.00     0.049 C 
HETATM   18  C   UNL     1       0.595  -2.860  -4.974  1.00  0.00     0.018 C 
HETATM   19  C   UNL     1      -0.587  -0.812  -4.144  1.00  0.00     0.018 C 
ENDBRANCH   3  17
TORSDOF 7
