REMARK  2 active torsions:
REMARK  status: ('A' for Active; 'I' for Inactive)
REMARK    1  A    between atoms: O_1  and  C_2 
REMARK    2  A    between atoms: C_2  and  C_4 
ROOT
HETATM    1  C   UNL     1       2.511  -0.157  -0.006  1.00  0.00     0.174 C 
HETATM    2  O   UNL     1       2.996  -0.920   0.821  1.00  0.00    -0.648 OA
ENDROOT
BRANCH   1   3
HETATM    3  O   UNL     1       1.194   0.181   0.061  1.00  0.00    -0.774 OA
HETATM    4  H   UNL     1       0.924   0.828  -0.625  1.00  0.00     0.167 HD
ENDBRANCH   1   3
BRANCH   1   5
HETATM    5  C   UNL     1       3.253   0.389  -1.223  1.00  0.00     0.275 C 
HETATM    6 CL   UNL     1       2.469   1.880  -1.812  1.00  0.00    -0.097 Cl
HETATM    7 CL   UNL     1       4.950   0.716  -0.835  1.00  0.00    -0.097 Cl
ENDBRANCH   1   5
TORSDOF 2
