REMARK  2 active torsions:
REMARK  status: ('A' for Active; 'I' for Inactive)
REMARK    1  A    between atoms: N_2  and  C_3 
REMARK    2  A    between atoms: C_6  and  N_10 
ROOT
HETATM    1  C   UNL     1       2.832   0.993  -0.746  1.00  0.00     0.106 A 
HETATM    2  C   UNL     1       3.806   0.652  -1.688  1.00  0.00     0.061 A 
HETATM    3  C   UNL     1       4.358   1.657  -2.486  1.00  0.00     0.059 A 
HETATM    4  C   UNL     1       3.987   3.008  -2.333  1.00  0.00     0.050 A 
HETATM    5  C   UNL     1       2.974   3.306  -1.398  1.00  0.00     0.059 A 
HETATM    6  C   UNL     1       2.405   2.315  -0.595  1.00  0.00     0.061 A 
HETATM    7 CL   UNL     1       2.419   4.933  -1.192  1.00  0.00    -0.082 Cl
HETATM    8 CL   UNL     1       5.545   1.198  -3.660  1.00  0.00    -0.082 Cl
ENDROOT
BRANCH   1   9
HETATM    9  N   UNL     1       2.243  -0.054   0.090  1.00  0.00    -0.116 N 
HETATM   10  O   UNL     1       1.138   0.176   0.600  1.00  0.00    -0.532 OA
HETATM   11  O   UNL     1       2.889  -1.100   0.235  1.00  0.00    -0.532 OA
ENDBRANCH   1   9
BRANCH   4  12
HETATM   12  N   UNL     1       4.444   3.989  -3.238  1.00  0.00    -0.300 NA
HETATM   13  H   UNL     1       5.349   3.776  -3.652  1.00  0.00     0.124 HD
HETATM   14  H   UNL     1       4.374   4.941  -2.883  1.00  0.00     0.124 HD
ENDBRANCH   4  12
TORSDOF 2
