REMARK  0 active torsions:
REMARK  status: ('A' for Active; 'I' for Inactive)
ROOT
HETATM    1 CL   UNL     1       0.975  -0.135   0.223  1.00  0.00    -0.083 Cl
HETATM    2  C   UNL     1       2.695  -0.085   0.067  1.00  0.00     0.055 A 
HETATM    3  C   UNL     1       3.409   1.116  -0.011  1.00  0.00     0.055 A 
HETATM    4  C   UNL     1       4.801   1.091  -0.136  1.00  0.00     0.025 A 
HETATM    5  C   UNL     1       5.481  -0.128  -0.184  1.00  0.00     0.002 A 
HETATM    6  C   UNL     1       4.770  -1.325  -0.107  1.00  0.00     0.002 A 
HETATM    7  C   UNL     1       3.380  -1.304   0.018  1.00  0.00     0.025 A 
HETATM    8 CL   UNL     1       2.634   2.660   0.042  1.00  0.00    -0.083 Cl
ENDROOT
TORSDOF 0
