REMARK  1 active torsions:
REMARK  status: ('A' for Active; 'I' for Inactive)
REMARK    1  A    between atoms: C_3  and  O_9 
ROOT
HETATM    1 CL   UNL     1       1.071  -0.047   0.050  1.00  0.00    -0.081 Cl
HETATM    2  C   UNL     1       2.789  -0.070  -0.096  1.00  0.00     0.068 A 
HETATM    3  C   UNL     1       3.508   1.126  -0.167  1.00  0.00     0.087 A 
HETATM    4  C   UNL     1       4.894   1.111  -0.285  1.00  0.00     0.040 A 
HETATM    5  C   UNL     1       5.568  -0.110  -0.330  1.00  0.00     0.026 A 
HETATM    6  C   UNL     1       4.847  -1.304  -0.259  1.00  0.00     0.035 A 
HETATM    7  C   UNL     1       3.458  -1.292  -0.141  1.00  0.00     0.050 A 
HETATM    8 CL   UNL     1       5.683  -2.807  -0.316  1.00  0.00    -0.084 Cl
ENDROOT
BRANCH   3   9
HETATM    9  O   UNL     1       2.894   2.347  -0.127  1.00  0.00    -0.359 OA
HETATM   10  H   UNL     1       1.935   2.188  -0.044  1.00  0.00     0.217 HD
ENDBRANCH   3   9
TORSDOF 1
