REMARK  0 active torsions:
REMARK  status: ('A' for Active; 'I' for Inactive)
ROOT
HETATM    1 CL   UNL     1       1.013   0.082   0.265  1.00  0.00    -0.084 Cl
HETATM    2  C   UNL     1       2.723   0.101   0.078  1.00  0.00     0.034 A 
HETATM    3  C   UNL     1       3.397   1.320   0.003  1.00  0.00     0.025 A 
HETATM    4  C   UNL     1       4.786   1.336  -0.148  1.00  0.00     0.025 A 
HETATM    5  C   UNL     1       5.488   0.133  -0.224  1.00  0.00     0.034 A 
HETATM    6  C   UNL     1       4.814  -1.086  -0.149  1.00  0.00     0.025 A 
HETATM    7  C   UNL     1       3.425  -1.102   0.003  1.00  0.00     0.025 A 
HETATM    8 CL   UNL     1       7.198   0.152  -0.410  1.00  0.00    -0.084 Cl
ENDROOT
TORSDOF 0
