REMARK  4 active torsions:
REMARK  status: ('A' for Active; 'I' for Inactive)
REMARK    1  A    between atoms: C_3  and  O_9 
REMARK    2  A    between atoms: O_9  and  C_10 
REMARK    3  A    between atoms: C_10  and  C_11 
REMARK    4  A    between atoms: C_11  and  O_13 
ROOT
HETATM    1 CL   UNL     1       1.123  -0.025  -0.530  1.00  0.00    -0.081 Cl
HETATM    2  C   UNL     1       2.819  -0.094  -0.198  1.00  0.00     0.069 A 
HETATM    3  C   UNL     1       3.595   1.080  -0.122  1.00  0.00     0.091 A 
HETATM    4  C   UNL     1       4.956   0.971   0.171  1.00  0.00     0.040 A 
HETATM    5  C   UNL     1       5.540  -0.292   0.328  1.00  0.00     0.026 A 
HETATM    6  C   UNL     1       4.765  -1.445   0.206  1.00  0.00     0.035 A 
HETATM    7  C   UNL     1       3.401  -1.353  -0.041  1.00  0.00     0.050 A 
HETATM    8 CL   UNL     1       5.507  -2.990   0.339  1.00  0.00    -0.084 Cl
ENDROOT
BRANCH   3   9
HETATM    9  O   UNL     1       2.953   2.244  -0.442  1.00  0.00    -0.334 OA
BRANCH   9  10
HETATM   10  C   UNL     1       3.614   3.507  -0.430  1.00  0.00     0.222 C 
HETATM   11  C   UNL     1       2.543   4.538  -0.073  1.00  0.00     0.051 C 
BRANCH  10  12
HETATM   12  C   UNL     1       4.242   3.899  -1.780  1.00  0.00     0.170 C 
HETATM   13  O   UNL     1       4.431   5.054  -2.140  1.00  0.00    -0.648 OA
BRANCH  12  14
HETATM   14  O   UNL     1       4.640   2.857  -2.545  1.00  0.00    -0.774 OA
HETATM   15  H   UNL     1       4.361   1.992  -2.190  1.00  0.00     0.167 HD
ENDBRANCH  12  14
ENDBRANCH  10  12
ENDBRANCH   9  10
ENDBRANCH   3   9
TORSDOF 4
