REMARK  1 active torsions:
REMARK  status: ('A' for Active; 'I' for Inactive)
REMARK    1  A    between atoms: C_6  and  N_8 
REMARK       I    between atoms: N_8  and  C_9 
REMARK       I    between atoms: C_9  and  N_11 
ROOT
HETATM    1 CL   UNL     1       1.084   0.252   0.329  1.00  0.00    -0.082 Cl
HETATM    2  C   UNL     1       2.794   0.103   0.116  1.00  0.00     0.058 A 
HETATM    3  C   UNL     1       3.634   1.218   0.045  1.00  0.00     0.055 A 
HETATM    4  C   UNL     1       5.006   1.035  -0.124  1.00  0.00     0.028 A 
HETATM    5  C   UNL     1       5.537  -0.255  -0.222  1.00  0.00     0.031 A 
HETATM    6  C   UNL     1       4.704  -1.380  -0.159  1.00  0.00     0.038 A 
HETATM    7  C   UNL     1       3.329  -1.188   0.011  1.00  0.00     0.055 A 
HETATM    8 CL   UNL     1       3.044   2.838   0.155  1.00  0.00    -0.083 Cl
ENDROOT
BRANCH   6   9
HETATM    9  N   UNL     1       5.324  -2.644  -0.288  1.00  0.00    -0.309 N 
HETATM   10  C   UNL     1       4.728  -3.885  -0.251  1.00  0.00     0.322 C 
HETATM   11  O   UNL     1       3.533  -4.055  -0.020  1.00  0.00    -0.247 OA
HETATM   12  N   UNL     1       5.568  -4.969  -0.502  1.00  0.00    -0.343 N 
HETATM   13  C   UNL     1       6.984  -4.951  -0.848  1.00  0.00     0.154 C 
HETATM   14  C   UNL     1       4.975  -6.302  -0.474  1.00  0.00     0.154 C 
HETATM   15  H   UNL     1       6.324  -2.621  -0.358  1.00  0.00     0.170 HD
ENDBRANCH   6   9
TORSDOF 1
