REMARK  4 active torsions:
REMARK  status: ('A' for Active; 'I' for Inactive)
REMARK    1  A    between atoms: C_1  and  O_3 
REMARK    2  A    between atoms: C_1  and  C_4 
REMARK    3  A    between atoms: C_4  and  O_5 
REMARK    4  A    between atoms: O_5  and  C_6 
ROOT
HETATM    1  C   UNL     1       4.248  -0.934  -1.241  1.00  0.00     0.091 A 
HETATM    2  C   UNL     1       4.826  -2.206  -1.371  1.00  0.00     0.069 A 
HETATM    3  C   UNL     1       5.048   0.201  -1.399  1.00  0.00     0.040 A 
HETATM    4  C   UNL     1       6.189  -2.345  -1.640  1.00  0.00     0.050 A 
HETATM    5  C   UNL     1       6.414   0.064  -1.667  1.00  0.00     0.026 A 
HETATM    6  C   UNL     1       6.976  -1.206  -1.790  1.00  0.00     0.035 A 
HETATM    7 CL   UNL     1       3.882  -3.642  -1.190  1.00  0.00    -0.081 Cl
HETATM    8 CL   UNL     1       8.650  -1.365  -2.151  1.00  0.00    -0.084 Cl
ENDROOT
BRANCH   1   9
HETATM    9  O   UNL     1       2.890  -0.852  -1.087  1.00  0.00    -0.339 OA
BRANCH   9  10
HETATM   10  C   UNL     1       2.439   0.042  -0.075  1.00  0.00     0.285 C 
BRANCH  10  11
HETATM   11  C   UNL     1       0.915   0.028   0.003  1.00  0.00     0.164 C 
HETATM   12  O   UNL     1       0.167  -0.587  -0.742  1.00  0.00    -0.648 OA
BRANCH  11  13
HETATM   13  O   UNL     1       0.432   0.815   1.000  1.00  0.00    -0.775 OA
HETATM   14  H   UNL     1       1.111   1.262   1.538  1.00  0.00     0.167 HD
ENDBRANCH  11  13
ENDBRANCH  10  11
ENDBRANCH   9  10
ENDBRANCH   1   9
TORSDOF 4
