REMARK  6 active torsions:
REMARK  status: ('A' for Active; 'I' for Inactive)
REMARK    1  A    between atoms: P_2  and  O_3 
REMARK    2  A    between atoms: P_2  and  O_13 
REMARK    3  A    between atoms: P_2  and  O_16 
REMARK    4  A    between atoms: O_3  and  C_4 
REMARK    5  A    between atoms: O_13  and  C_14 
REMARK    6  A    between atoms: O_16  and  C_17 
ROOT
HETATM    1  C   UNL     1       3.034   1.861  -1.704  1.00  0.00     0.196 A 
HETATM    2  N   UNL     1       4.108   1.413  -2.387  1.00  0.00    -0.209 NA
HETATM    3  C   UNL     1       4.157   1.713  -3.707  1.00  0.00     0.150 A 
HETATM    4  C   UNL     1       3.147   2.381  -4.394  1.00  0.00     0.076 A 
HETATM    5  C   UNL     1       2.047   2.823  -3.664  1.00  0.00     0.055 A 
HETATM    6  C   UNL     1       2.004   2.602  -2.289  1.00  0.00     0.089 A 
HETATM    7 CL   UNL     1       0.694   3.272  -1.396  1.00  0.00    -0.080 Cl
HETATM    8 CL   UNL     1       3.198   2.693  -6.086  1.00  0.00    -0.081 Cl
HETATM    9 CL   UNL     1       5.621   1.201  -4.450  1.00  0.00    -0.060 Cl
ENDROOT
BRANCH   1  10
HETATM   10  O   UNL     1       3.017   1.576  -0.360  1.00  0.00    -0.251 OA
BRANCH  10  11
HETATM   11  P   UNL     1       2.915  -0.031   0.093  1.00  0.00     0.335 P 
HETATM   12  S   UNL     1       1.017  -0.031   0.093  1.00  0.00    -0.007 SA
BRANCH  11  13
HETATM   13  O   UNL     1       2.999   0.204   1.766  1.00  0.00    -0.314 OA
BRANCH  13  14
HETATM   14  C   UNL     1       2.245  -0.557   2.713  1.00  0.00     0.174 C 
HETATM   15  C   UNL     1       2.929  -0.579   4.063  1.00  0.00     0.034 C 
ENDBRANCH  13  14
ENDBRANCH  11  13
BRANCH  11  16
HETATM   16  O   UNL     1       4.645  -0.031   0.093  1.00  0.00    -0.314 OA
BRANCH  16  17
HETATM   17  C   UNL     1       5.410   0.513   1.160  1.00  0.00     0.174 C 
HETATM   18  C   UNL     1       6.877   0.485   0.781  1.00  0.00     0.034 C 
ENDBRANCH  16  17
ENDBRANCH  11  16
ENDBRANCH  10  11
ENDBRANCH   1  10
TORSDOF 6
