REMARK  4 active torsions:
REMARK  status: ('A' for Active; 'I' for Inactive)
REMARK    1  A    between atoms: O_1  and  C_2 
REMARK    2  A    between atoms: C_2  and  C_3 
REMARK    3  A    between atoms: C_2  and  C_10 
REMARK    4  A    between atoms: C_2  and  C_17 
ROOT
HETATM    1  C   UNL     1       2.414  -0.103   0.120  1.00  0.00     0.161 C 
ENDROOT
BRANCH   1   2
HETATM    2  O   UNL     1       0.984  -0.434   0.162  1.00  0.00    -0.375 OA
HETATM    3  H   UNL     1       0.662  -0.458  -0.758  1.00  0.00     0.211 HD
ENDBRANCH   1   2
BRANCH   1   4
HETATM    4  C   UNL     1       2.980  -0.682   1.461  1.00  0.00    -0.015 A 
HETATM    5  C   UNL     1       4.091  -0.143   2.137  1.00  0.00     0.012 A 
HETATM    6  C   UNL     1       4.530  -0.667   3.364  1.00  0.00     0.024 A 
HETATM    7  C   UNL     1       3.901  -1.774   3.920  1.00  0.00     0.034 A 
HETATM    8  C   UNL     1       2.818  -2.348   3.274  1.00  0.00     0.024 A 
HETATM    9 CL   UNL     1       4.458  -2.427   5.410  1.00  0.00    -0.084 Cl
HETATM   10  C   UNL     1       2.353  -1.792   2.077  1.00  0.00     0.012 A 
ENDBRANCH   1   4
BRANCH   1  11
HETATM   11  C   UNL     1       2.914  -0.910  -1.128  1.00  0.00    -0.015 A 
HETATM   12  C   UNL     1       3.380  -0.320  -2.319  1.00  0.00     0.012 A 
HETATM   13  C   UNL     1       3.665  -1.084  -3.463  1.00  0.00     0.024 A 
HETATM   14  C   UNL     1       3.499  -2.461  -3.448  1.00  0.00     0.034 A 
HETATM   15  C   UNL     1       3.062  -3.085  -2.291  1.00  0.00     0.024 A 
HETATM   16 CL   UNL     1       3.804  -3.385  -4.864  1.00  0.00    -0.084 Cl
HETATM   17  C   UNL     1       2.773  -2.318  -1.155  1.00  0.00     0.012 A 
ENDBRANCH   1  11
BRANCH   1  18
HETATM   18  C   UNL     1       2.479   1.512   0.029  1.00  0.00     0.227 C 
HETATM   19 CL   UNL     1       1.387   2.142  -1.301  1.00  0.00    -0.080 Cl
HETATM   20 CL   UNL     1       1.855   2.317   1.538  1.00  0.00    -0.080 Cl
HETATM   21 CL   UNL     1       4.120   2.207  -0.291  1.00  0.00    -0.080 Cl
ENDBRANCH   1  18
TORSDOF 4
