REMARK  0 active torsions:
REMARK  status: ('A' for Active; 'I' for Inactive)
ROOT
HETATM    1  C   UNL     1      -2.143  -0.240   0.779  1.00  0.00     0.156 A 
HETATM    2  O   UNL     1      -1.679   0.873   1.539  1.00  0.00    -0.375 OA
HETATM    3  C   UNL     1      -1.875   1.115   0.148  1.00  0.00     0.156 A 
HETATM    4  C   UNL     1      -1.117  -1.165   0.113  1.00  0.00     0.024 C 
HETATM    5  C   UNL     1       0.290  -0.805   0.669  1.00  0.00     0.031 C 
HETATM    6  C   UNL     1      -0.720   0.845  -0.826  1.00  0.00     0.024 C 
HETATM    7  C   UNL     1      -1.153  -0.555  -1.304  1.00  0.00     0.015 C 
HETATM    8  C   UNL     1       0.571   0.600   0.003  1.00  0.00     0.031 C 
HETATM    9  C   UNL     1       1.583  -1.609   0.316  1.00  0.00     0.118 C 
HETATM   10  C   UNL     1       1.980   0.389  -0.641  1.00  0.00     0.118 C 
HETATM   11  C   UNL     1       1.909  -0.641  -1.746  1.00  0.00     0.059 C 
HETATM   12  C   UNL     1       1.672  -1.831  -1.176  1.00  0.00     0.059 C 
HETATM   13 CL   UNL     1       1.440  -3.325  -1.940  1.00  0.00    -0.085 Cl
HETATM   14 CL   UNL     1       2.050  -0.290  -3.398  1.00  0.00    -0.085 Cl
HETATM   15 CL   UNL     1       2.783   1.897  -1.042  1.00  0.00    -0.109 Cl
HETATM   16  C   UNL     1       2.688  -0.497   0.448  1.00  0.00     0.166 C 
HETATM   17 CL   UNL     1       2.823   0.257   2.078  1.00  0.00    -0.097 Cl
HETATM   18 CL   UNL     1       4.363  -1.035   0.020  1.00  0.00    -0.097 Cl
HETATM   19 CL   UNL     1       1.804  -3.030   1.323  1.00  0.00    -0.109 Cl
ENDROOT
TORSDOF 0
