REMARK  6 active torsions:
REMARK  status: ('A' for Active; 'I' for Inactive)
REMARK    1  A    between atoms: C_1  and  C_12 
REMARK    2  A    between atoms: C_1  and  C_19 
REMARK    3  A    between atoms: C_2  and  C_3 
REMARK    4  A    between atoms: C_2  and  C_10 
REMARK    5  A    between atoms: C_6  and  O_9 
REMARK    6  A    between atoms: C_15  and  O_18 
ROOT
HETATM    1  C   UNL     1       1.105  -0.084  -0.032  1.00  0.00    -0.041 C 
HETATM    2  C   UNL     1       0.390  -1.120   0.485  1.00  0.00    -0.041 C 
ENDROOT
BRANCH   1   3
HETATM    3  C   UNL     1       0.388   0.969  -0.806  1.00  0.00    -0.029 A 
HETATM    4  C   UNL     1      -0.079   0.700  -2.102  1.00  0.00     0.014 A 
HETATM    5  C   UNL     1      -0.727   1.691  -2.844  1.00  0.00     0.037 A 
HETATM    6  C   UNL     1      -0.895   2.957  -2.291  1.00  0.00     0.065 A 
HETATM    7  C   UNL     1      -0.435   3.243  -1.011  1.00  0.00     0.037 A 
HETATM    8  C   UNL     1       0.202   2.249  -0.266  1.00  0.00     0.014 A 
BRANCH   6   9
HETATM    9  O   UNL     1      -1.510   3.957  -2.983  1.00  0.00    -0.361 OA
HETATM   10  H   UNL     1      -1.770   3.617  -3.855  1.00  0.00     0.217 HD
ENDBRANCH   6   9
ENDBRANCH   1   3
BRANCH   1  11
HETATM   11  C   UNL     1       2.603   0.222   0.001  1.00  0.00     0.035 C 
HETATM   12  C   UNL     1       3.561  -0.551   0.896  1.00  0.00     0.010 C 
ENDBRANCH   1  11
BRANCH   2  13
HETATM   13  C   UNL     1       1.038  -2.250   1.175  1.00  0.00    -0.029 A 
HETATM   14  C   UNL     1       1.580  -3.308   0.431  1.00  0.00     0.014 A 
HETATM   15  C   UNL     1       2.199  -4.381   1.077  1.00  0.00     0.037 A 
HETATM   16  C   UNL     1       2.259  -4.400   2.467  1.00  0.00     0.065 A 
HETATM   17  C   UNL     1       1.710  -3.369   3.220  1.00  0.00     0.037 A 
HETATM   18  C   UNL     1       1.103  -2.290   2.575  1.00  0.00     0.014 A 
BRANCH  16  19
HETATM   19  O   UNL     1       2.858  -5.425   3.138  1.00  0.00    -0.361 OA
HETATM   20  H   UNL     1       3.224  -6.047   2.488  1.00  0.00     0.217 HD
ENDBRANCH  16  19
ENDBRANCH   2  13
BRANCH   2  21
HETATM   21  C   UNL     1      -1.133  -1.227   0.348  1.00  0.00     0.035 C 
HETATM   22  C   UNL     1      -1.881  -2.230   1.227  1.00  0.00     0.010 C 
ENDBRANCH   2  21
TORSDOF 6
