REMARK  6 active torsions:
REMARK  status: ('A' for Active; 'I' for Inactive)
REMARK    1  A    between atoms: O_1  and  C_2 
REMARK    2  A    between atoms: C_2  and  C_3 
REMARK    3  A    between atoms: C_3  and  O_4 
REMARK    4  A    between atoms: O_4  and  C_5 
REMARK    5  A    between atoms: C_5  and  C_6 
REMARK    6  A    between atoms: C_6  and  O_7 
ROOT
HETATM    1  O   UNL     1       4.280  -1.186  -0.701  1.00  0.00    -0.387 OA
ENDROOT
BRANCH   1   2
HETATM    2  C   UNL     1       2.853  -1.150  -0.704  1.00  0.00     0.193 C 
BRANCH   2   3
HETATM    3  C   UNL     1       2.378   0.081   0.057  1.00  0.00     0.190 C 
BRANCH   3   4
HETATM    4  O   UNL     1       0.957   0.128   0.077  1.00  0.00    -0.399 OA
HETATM    5  H   UNL     1       0.710   0.934   0.562  1.00  0.00     0.209 HD
ENDBRANCH   3   4
ENDBRANCH   2   3
ENDBRANCH   1   2
BRANCH   1   6
HETATM    6  C   UNL     1       4.775  -2.308  -1.428  1.00  0.00     0.193 C 
BRANCH   6   7
HETATM    7  C   UNL     1       6.300  -2.295  -1.406  1.00  0.00     0.190 C 
BRANCH   7   8
HETATM    8  O   UNL     1       6.830  -3.429  -2.083  1.00  0.00    -0.399 OA
HETATM    9  H   UNL     1       6.617  -4.212  -1.547  1.00  0.00     0.209 HD
ENDBRANCH   7   8
ENDBRANCH   6   7
ENDBRANCH   1   6
TORSDOF 6
