REMARK  5 active torsions:
REMARK  status: ('A' for Active; 'I' for Inactive)
REMARK    1  A    between atoms: P_2  and  S_3 
REMARK    2  A    between atoms: P_2  and  O_9 
REMARK    3  A    between atoms: P_2  and  O_11 
REMARK    4  A    between atoms: S_3  and  C_4 
REMARK    5  A    between atoms: C_4  and  C_5 
REMARK       I    between atoms: C_5  and  N_7 
ROOT
HETATM    1  S   UNL     1       3.066  -1.853   1.092  1.00  0.00    -0.065 SA
ENDROOT
BRANCH   1   2
HETATM    2  P   UNL     1       2.876   0.090   0.038  1.00  0.00     0.247 P 
HETATM    3  S   UNL     1       0.979   0.090   0.038  1.00  0.00    -0.026 SA
BRANCH   2   4
HETATM    4  O   UNL     1       3.085  -0.443  -1.532  1.00  0.00    -0.332 OA
HETATM    5  C   UNL     1       2.347  -0.020  -2.660  1.00  0.00     0.211 C 
ENDBRANCH   2   4
BRANCH   2   6
HETATM    6  O   UNL     1       4.606   0.090   0.038  1.00  0.00    -0.332 OA
HETATM    7  C   UNL     1       5.164   1.254   0.615  1.00  0.00     0.211 C 
ENDBRANCH   2   6
ENDBRANCH   1   2
BRANCH   1   8
HETATM    8  C   UNL     1       2.901  -1.469   2.842  1.00  0.00     0.186 C 
BRANCH   8   9
HETATM    9  C   UNL     1       2.896  -2.728   3.704  1.00  0.00     0.227 C 
HETATM   10  O   UNL     1       2.879  -3.878   3.275  1.00  0.00    -0.273 OA
HETATM   11  N   UNL     1       2.903  -2.450   5.061  1.00  0.00    -0.365 N 
HETATM   12  C   UNL     1       2.879  -3.499   6.053  1.00  0.00     0.149 C 
HETATM   13  H   UNL     1       2.881  -1.492   5.379  1.00  0.00     0.161 HD
ENDBRANCH   8   9
ENDBRANCH   1   8
TORSDOF 5
