REMARK  5 active torsions:
REMARK  status: ('A' for Active; 'I' for Inactive)
REMARK    1  A    between atoms: N_1  and  C_2 
REMARK    2  A    between atoms: C_5  and  C_10 
REMARK    3  A    between atoms: C_7  and  O_8 
REMARK    4  A    between atoms: C_13  and  N_18 
REMARK    5  A    between atoms: C_14  and  O_16 
ROOT
HETATM    1  C   UNL     1       2.357   0.224   0.041  1.00  0.00     0.039 A 
HETATM    2  C   UNL     1       3.136   1.391   0.055  1.00  0.00     0.027 A 
HETATM    3  C   UNL     1       4.517   1.372  -0.198  1.00  0.00     0.014 A 
HETATM    4  C   UNL     1       5.213   0.181  -0.437  1.00  0.00    -0.023 A 
HETATM    5  C   UNL     1       4.429  -0.987  -0.357  1.00  0.00     0.051 A 
HETATM    6  C   UNL     1       3.035  -0.991  -0.111  1.00  0.00     0.089 A 
ENDROOT
BRANCH   4   7
HETATM    7  C   UNL     1       6.679   0.151  -0.762  1.00  0.00    -0.023 A 
HETATM    8  C   UNL     1       7.439   1.330  -0.896  1.00  0.00     0.014 A 
HETATM    9  C   UNL     1       8.797   1.311  -1.242  1.00  0.00     0.027 A 
HETATM   10  C   UNL     1       9.445   0.110  -1.509  1.00  0.00     0.039 A 
HETATM   11  C   UNL     1       8.741  -1.090  -1.328  1.00  0.00     0.089 A 
HETATM   12  C   UNL     1       7.382  -1.057  -0.972  1.00  0.00     0.051 A 
BRANCH  10  13
HETATM   13  N   UNL     1      10.832   0.103  -1.749  1.00  0.00    -0.300 NA
HETATM   14  H   UNL     1      11.154   0.896  -2.293  1.00  0.00     0.124 HD
HETATM   15  H   UNL     1      11.119  -0.793  -2.140  1.00  0.00     0.124 HD
ENDBRANCH  10  13
BRANCH  11  16
HETATM   16  O   UNL     1       9.471  -2.233  -1.565  1.00  0.00    -0.354 OA
HETATM   17  C   UNL     1       8.805  -3.478  -1.406  1.00  0.00     0.210 C 
ENDBRANCH  11  16
ENDBRANCH   4   7
BRANCH   6  18
HETATM   18  O   UNL     1       2.563  -2.276  -0.042  1.00  0.00    -0.354 OA
HETATM   19  C   UNL     1       1.174  -2.533  -0.052  1.00  0.00     0.210 C 
ENDBRANCH   6  18
BRANCH   1  20
HETATM   20  N   UNL     1       1.005   0.369   0.395  1.00  0.00    -0.300 NA
HETATM   21  H   UNL     1       0.654   1.312   0.258  1.00  0.00     0.124 HD
HETATM   22  H   UNL     1       0.387  -0.296  -0.048  1.00  0.00     0.124 HD
ENDBRANCH   1  20
TORSDOF 5
