REMARK  2 active torsions:
REMARK  status: ('A' for Active; 'I' for Inactive)
REMARK    1  A    between atoms: C_4  and  O_9 
REMARK    2  A    between atoms: O_9  and  C_10 
ROOT
HETATM    1  C   UNL     1       1.045  -0.019   0.198  1.00  0.00     0.040 C 
HETATM    2  C   UNL     1       2.554  -0.110  -0.017  1.00  0.00     0.125 C 
HETATM    3  C   UNL     1       3.099   0.968  -0.943  1.00  0.00     0.093 C 
HETATM    4  C   UNL     1       2.743   0.650  -2.390  1.00  0.00     0.274 C 
HETATM    5  O   UNL     1       3.233  -0.653  -2.703  1.00  0.00    -0.331 OA
HETATM    6  C   UNL     1       2.636  -1.628  -1.857  1.00  0.00     0.259 C 
HETATM    7  O   UNL     1       2.938  -1.401  -0.483  1.00  0.00    -0.357 OA
HETATM    8  C   UNL     1       3.209  -2.985  -2.232  1.00  0.00     0.071 C 
ENDROOT
BRANCH   4   9
HETATM    9  O   UNL     1       3.371   1.598  -3.264  1.00  0.00    -0.290 OA
BRANCH   9  10
HETATM   10  C   UNL     1       2.716   2.781  -3.384  1.00  0.00     0.257 C 
HETATM   11  O   UNL     1       1.690   3.086  -2.791  1.00  0.00    -0.266 OA
HETATM   12  C   UNL     1       3.450   3.700  -4.311  1.00  0.00     0.126 C 
ENDBRANCH   9  10
ENDBRANCH   4   9
TORSDOF 2
