REMARK  4 active torsions:
REMARK  status: ('A' for Active; 'I' for Inactive)
REMARK    1  A    between atoms: C_2  and  C_3 
REMARK    2  A    between atoms: C_2  and  O_13 
REMARK    3  A    between atoms: C_6  and  C_9 
REMARK    4  A    between atoms: C_9  and  O_11 
ROOT
HETATM    1  C   UNL     1       2.940   1.299  -0.457  1.00  0.00     0.039 A 
HETATM    2  C   UNL     1       2.472   2.517   0.053  1.00  0.00     0.018 A 
HETATM    3  C   UNL     1       3.008   3.725  -0.406  1.00  0.00     0.018 A 
HETATM    4  C   UNL     1       4.014   3.727  -1.382  1.00  0.00     0.039 A 
HETATM    5  C   UNL     1       4.481   2.507  -1.891  1.00  0.00     0.018 A 
HETATM    6  C   UNL     1       3.936   1.299  -1.440  1.00  0.00     0.018 A 
ENDROOT
BRANCH   1   7
HETATM    7  C   UNL     1       2.292   0.042   0.009  1.00  0.00     0.292 C 
HETATM    8  O   UNL     1       1.117   0.031   0.349  1.00  0.00    -0.259 OA
BRANCH   7   9
HETATM    9  O   UNL     1       3.040  -1.086  -0.062  1.00  0.00    -0.323 OA
HETATM   10  C   UNL     1       4.338  -1.094   0.550  1.00  0.00     0.213 C 
ENDBRANCH   7   9
ENDBRANCH   1   7
BRANCH   4  11
HETATM   11  C   UNL     1       4.519   5.040  -1.871  1.00  0.00     0.292 C 
HETATM   12  O   UNL     1       4.091   6.115  -1.479  1.00  0.00    -0.259 OA
BRANCH  11  13
HETATM   13  O   UNL     1       5.484   4.861  -2.806  1.00  0.00    -0.323 OA
HETATM   14  C   UNL     1       5.974   6.075  -3.377  1.00  0.00     0.213 C 
ENDBRANCH  11  13
ENDBRANCH   4  11
TORSDOF 4
