REMARK  1 active torsions:
REMARK  status: ('A' for Active; 'I' for Inactive)
REMARK    1  A    between atoms: N_2  and  C_3 
ROOT
HETATM    1  C   UNL     1       3.138  -0.989   0.620  1.00  0.00     0.029 A 
HETATM    2  C   UNL     1       4.441  -0.888   1.141  1.00  0.00     0.029 A 
HETATM    3  C   UNL     1       5.174  -2.012   1.542  1.00  0.00     0.002 A 
HETATM    4  C   UNL     1       4.617  -3.280   1.441  1.00  0.00     0.000 A 
HETATM    5  C   UNL     1       3.325  -3.416   0.948  1.00  0.00     0.002 A 
HETATM    6  C   UNL     1       2.598  -2.285   0.551  1.00  0.00     0.029 A 
ENDROOT
BRANCH   1   7
HETATM    7  N   UNL     1       2.420   0.155   0.239  1.00  0.00    -0.390 N 
HETATM    8  C   UNL     1       1.041   0.006  -0.219  1.00  0.00     0.149 C 
HETATM    9  C   UNL     1       3.184   1.212  -0.427  1.00  0.00     0.149 C 
ENDBRANCH   1   7
TORSDOF 1
