REMARK  7 active torsions:
REMARK  status: ('A' for Active; 'I' for Inactive)
REMARK    1  A    between atoms: C_3  and  C_7 
REMARK    2  A    between atoms: C_7  and  C_8 
REMARK    3  A    between atoms: C_7  and  C_14 
REMARK    4  A    between atoms: C_7  and  C_20 
REMARK    5  A    between atoms: C_8  and  C_9 
REMARK    6  A    between atoms: C_9  and  N_10 
REMARK    7  A    between atoms: C_20  and  C_21 
ROOT
HETATM    1  C   UNL     1       1.149   2.279  -0.317  1.00  0.00     0.076 C 
ENDROOT
BRANCH   1   2
HETATM    2  C   UNL     1       0.602   0.822  -0.375  1.00  0.00    -0.037 C 
HETATM    3  C   UNL     1      -0.370   0.442  -1.315  1.00  0.00     0.009 C 
HETATM    4  C   UNL     1      -0.872  -0.865  -1.368  1.00  0.00     0.001 C 
HETATM    5  C   UNL     1      -0.343  -1.856  -0.550  1.00  0.00     0.000 C 
HETATM    6  C   UNL     1       0.707  -1.545   0.299  1.00  0.00     0.001 C 
HETATM    7  C   UNL     1       1.172  -0.229   0.379  1.00  0.00     0.009 C 
ENDBRANCH   1   2
BRANCH   1   8
HETATM    8  C   UNL     1       2.169   2.482   0.902  1.00  0.00     0.062 C 
BRANCH   8   9
HETATM    9  C   UNL     1       1.630   2.688   2.387  1.00  0.00     0.219 C 
HETATM   10  C   UNL     1       2.845   3.198   3.200  1.00  0.00     0.043 C 
BRANCH   9  11
HETATM   11  N   UNL     1       0.976   1.506   3.019  1.00  0.00     0.084 N 
HETATM   12  C   UNL     1       1.052   1.479   4.488  1.00  0.00     0.309 C 
HETATM   13  C   UNL     1      -0.455   1.430   2.704  1.00  0.00     0.309 C 
ENDBRANCH   9  11
ENDBRANCH   8   9
ENDBRANCH   1   8
BRANCH   1  14
HETATM   14  C   UNL     1       1.979   2.552  -1.647  1.00  0.00    -0.037 A 
HETATM   15  C   UNL     1       2.261   3.855  -2.103  1.00  0.00     0.009 A 
HETATM   16  C   UNL     1       2.975   4.082  -3.289  1.00  0.00     0.001 A 
HETATM   17  C   UNL     1       3.435   3.015  -4.052  1.00  0.00     0.000 A 
HETATM   18  C   UNL     1       3.209   1.719  -3.613  1.00  0.00     0.001 A 
HETATM   19  C   UNL     1       2.511   1.493  -2.420  1.00  0.00     0.009 A 
ENDBRANCH   1  14
BRANCH   1  20
HETATM   20  C   UNL     1       0.123   3.457  -0.066  1.00  0.00     0.144 C 
HETATM   21  O   UNL     1       0.573   4.550   0.336  1.00  0.00    -0.296 OA
BRANCH  20  22
HETATM   22  C   UNL     1      -1.364   3.532  -0.409  1.00  0.00     0.075 C 
HETATM   23  C   UNL     1      -2.395   2.430  -0.343  1.00  0.00     0.013 C 
ENDBRANCH  20  22
ENDBRANCH   1  20
TORSDOF 7
