REMARK  1 active torsions:
REMARK  status: ('A' for Active; 'I' for Inactive)
REMARK    1  A    between atoms: N_2  and  C_3 
ROOT
HETATM    1  C   UNL     1       1.032  -0.060   0.075  1.00  0.00     0.151 C 
HETATM    2  N   UNL     1       2.481  -0.026   0.067  1.00  0.00    -0.368 N 
HETATM    3  C   UNL     1       3.208  -1.240   0.371  1.00  0.00     0.151 C 
ENDROOT
BRANCH   2   4
HETATM    4  C   UNL     1       3.160   1.138  -0.226  1.00  0.00     0.350 C 
HETATM    5  O   UNL     1       2.655   2.219  -0.497  1.00  0.00    -0.284 OA
ENDBRANCH   2   4
TORSDOF 1
