REMARK  0 active torsions:
REMARK  status: ('A' for Active; 'I' for Inactive)
REMARK       I    between atoms: C_2  and  N_3 
ROOT
HETATM    1  O   UNL     1       1.076  -0.062   0.113  1.00  0.00    -0.254 OA
HETATM    2  C   UNL     1       2.307  -0.056   0.078  1.00  0.00     0.316 C 
HETATM    3  N   UNL     1       3.055  -0.272   1.240  1.00  0.00    -0.347 N 
HETATM    4  C   UNL     1       4.509  -0.285   1.311  1.00  0.00     0.153 C 
HETATM    5  C   UNL     1       2.359  -0.506   2.494  1.00  0.00     0.153 C 
HETATM    6 CL   UNL     1       3.184   0.221  -1.408  1.00  0.00    -0.020 Cl
ENDROOT
TORSDOF 0
