REMARK  2 active torsions:
REMARK  status: ('A' for Active; 'I' for Inactive)
REMARK    1  A    between atoms: C_3  and  N_11 
REMARK    2  A    between atoms: C_5  and  N_8 
ROOT
HETATM    1  C   UNL     1       0.922  -0.102   0.063  1.00  0.00     0.050 C 
HETATM    2  C   UNL     1       2.411   0.018  -0.130  1.00  0.00    -0.029 A 
HETATM    3  C   UNL     1       3.155   1.214  -0.241  1.00  0.00     0.111 A 
HETATM    4  C   UNL     1       4.558   1.180  -0.381  1.00  0.00     0.072 A 
HETATM    5  C   UNL     1       5.222  -0.051  -0.413  1.00  0.00     0.105 A 
HETATM    6  C   UNL     1       4.506  -1.246  -0.311  1.00  0.00     0.037 A 
HETATM    7  C   UNL     1       3.116  -1.204  -0.171  1.00  0.00     0.012 A 
ENDROOT
BRANCH   3   8
HETATM    8  N   UNL     1       2.536   2.549  -0.221  1.00  0.00    -0.115 N 
HETATM    9  O   UNL     1       1.405   2.682  -0.702  1.00  0.00    -0.532 OA
HETATM   10  O   UNL     1       3.215   3.477   0.241  1.00  0.00    -0.532 OA
ENDBRANCH   3   8
BRANCH   5  11
HETATM   11  N   UNL     1       6.684  -0.091  -0.555  1.00  0.00    -0.116 N 
HETATM   12  O   UNL     1       7.224  -1.203  -0.635  1.00  0.00    -0.532 OA
HETATM   13  O   UNL     1       7.287   0.990  -0.587  1.00  0.00    -0.532 OA
ENDBRANCH   5  11
TORSDOF 2
