REMARK  3 active torsions:
REMARK  status: ('A' for Active; 'I' for Inactive)
REMARK    1  A    between atoms: O_1  and  C_2 
REMARK    2  A    between atoms: C_3  and  N_11 
REMARK    3  A    between atoms: C_5  and  N_8 
ROOT
HETATM    1  C   UNL     1       2.334  -0.028  -0.085  1.00  0.00     0.098 A 
HETATM    2  C   UNL     1       3.049   1.174  -0.202  1.00  0.00     0.138 A 
HETATM    3  C   UNL     1       4.445   1.157  -0.356  1.00  0.00     0.075 A 
HETATM    4  C   UNL     1       5.114  -0.075  -0.390  1.00  0.00     0.105 A 
HETATM    5  C   UNL     1       4.404  -1.277  -0.271  1.00  0.00     0.039 A 
HETATM    6  C   UNL     1       3.015  -1.247  -0.118  1.00  0.00     0.041 A 
ENDROOT
BRANCH   2   7
HETATM    7  N   UNL     1       2.358   2.466  -0.166  1.00  0.00    -0.113 N 
HETATM    8  O   UNL     1       1.119   2.449  -0.092  1.00  0.00    -0.532 OA
HETATM    9  O   UNL     1       3.046   3.494  -0.210  1.00  0.00    -0.532 OA
ENDBRANCH   2   7
BRANCH   1  10
HETATM   10  O   UNL     1       0.979  -0.131   0.066  1.00  0.00    -0.358 OA
HETATM   11  H   UNL     1       0.565   0.759   0.053  1.00  0.00     0.217 HD
ENDBRANCH   1  10
BRANCH   4  12
HETATM   12  N   UNL     1       6.574  -0.108  -0.554  1.00  0.00    -0.116 N 
HETATM   13  O   UNL     1       7.117  -1.217  -0.649  1.00  0.00    -0.532 OA
HETATM   14  O   UNL     1       7.170   0.976  -0.589  1.00  0.00    -0.532 OA
ENDBRANCH   4  12
TORSDOF 3
