REMARK  6 active torsions:
REMARK  status: ('A' for Active; 'I' for Inactive)
REMARK    1  A    between atoms: C_1  and  C_2 
REMARK    2  A    between atoms: C_1  and  C_8 
REMARK    3  A    between atoms: C_1  and  O_14 
REMARK    4  A    between atoms: O_14  and  C_15 
REMARK    5  A    between atoms: C_15  and  C_16 
REMARK    6  A    between atoms: C_16  and  N_17 
ROOT
HETATM    1  C   UNL     1       0.917   0.132  -0.475  1.00  0.00     0.187 C 
ENDROOT
BRANCH   1   2
HETATM    2  C   UNL     1       0.390   1.314  -1.288  1.00  0.00    -0.025 A 
HETATM    3  C   UNL     1       0.404   1.372  -2.688  1.00  0.00     0.010 A 
HETATM    4  C   UNL     1       0.043   2.544  -3.364  1.00  0.00     0.001 A 
HETATM    5  C   UNL     1      -0.260   3.704  -2.652  1.00  0.00     0.000 A 
HETATM    6  C   UNL     1      -0.243   3.684  -1.264  1.00  0.00     0.001 A 
HETATM    7  C   UNL     1       0.048   2.496  -0.591  1.00  0.00     0.010 A 
ENDBRANCH   1   2
BRANCH   1   8
HETATM    8  C   UNL     1       0.529  -1.313  -0.797  1.00  0.00    -0.025 A 
HETATM    9  C   UNL     1       0.978  -2.307   0.104  1.00  0.00     0.010 A 
HETATM   10  C   UNL     1       0.720  -3.664  -0.105  1.00  0.00     0.001 A 
HETATM   11  C   UNL     1       0.013  -4.065  -1.230  1.00  0.00     0.000 A 
HETATM   12  C   UNL     1      -0.461  -3.106  -2.122  1.00  0.00     0.001 A 
HETATM   13  C   UNL     1      -0.225  -1.742  -1.896  1.00  0.00     0.010 A 
ENDBRANCH   1   8
BRANCH   1  14
HETATM   14  O   UNL     1       2.363   0.173  -0.448  1.00  0.00    -0.375 OA
BRANCH  14  15
HETATM   15  C   UNL     1       2.871   1.259   0.332  1.00  0.00     0.199 C 
BRANCH  15  16
HETATM   16  C   UNL     1       4.392   1.156   0.496  1.00  0.00     0.297 C 
BRANCH  16  17
HETATM   17  N   UNL     1       4.979   2.406   1.019  1.00  0.00     0.082 N 
HETATM   18  C   UNL     1       4.560   2.691   2.391  1.00  0.00     0.309 C 
HETATM   19  C   UNL     1       6.437   2.364   0.932  1.00  0.00     0.309 C 
ENDBRANCH  16  17
ENDBRANCH  15  16
ENDBRANCH  14  15
ENDBRANCH   1  14
TORSDOF 6
