REMARK  2 active torsions:
REMARK  status: ('A' for Active; 'I' for Inactive)
REMARK    1  A    between atoms: C_3  and  C_4 
REMARK    2  A    between atoms: C_3  and  C_10 
ROOT
HETATM    1  O   UNL     1       0.997  -0.076   0.287  1.00  0.00    -0.269 OA
HETATM    2  C   UNL     1       2.189  -0.107   0.008  1.00  0.00     0.263 A 
HETATM    3  C   UNL     1       3.119  -1.360  -0.049  1.00  0.00     0.171 A 
HETATM    4  N   UNL     1       4.335  -0.696  -0.494  1.00  0.00    -0.317 N 
HETATM    5  C   UNL     1       4.178   0.653  -0.672  1.00  0.00     0.324 A 
HETATM    6  O   UNL     1       5.042   1.409  -1.072  1.00  0.00    -0.247 OA
HETATM    7  N   UNL     1       2.915   0.995  -0.336  1.00  0.00    -0.277 N 
HETATM    8  H   UNL     1       5.189  -1.173  -0.739  1.00  0.00     0.166 HD
HETATM    9  H   UNL     1       2.547   1.928  -0.399  1.00  0.00     0.173 HD
ENDROOT
BRANCH   3  10
HETATM   10  C   UNL     1       3.277  -1.920   1.379  1.00  0.00    -0.016 A 
HETATM   11  C   UNL     1       4.218  -1.376   2.278  1.00  0.00     0.010 A 
HETATM   12  C   UNL     1       4.375  -1.895   3.566  1.00  0.00     0.001 A 
HETATM   13  C   UNL     1       3.597  -2.969   3.985  1.00  0.00     0.000 A 
HETATM   14  C   UNL     1       2.632  -3.496   3.133  1.00  0.00     0.001 A 
HETATM   15  C   UNL     1       2.453  -2.957   1.856  1.00  0.00     0.010 A 
ENDBRANCH   3  10
BRANCH   3  16
HETATM   16  C   UNL     1       2.731  -2.368  -1.147  1.00  0.00    -0.016 A 
HETATM   17  C   UNL     1       3.218  -3.691  -1.125  1.00  0.00     0.010 A 
HETATM   18  C   UNL     1       2.865  -4.613  -2.114  1.00  0.00     0.001 A 
HETATM   19  C   UNL     1       2.063  -4.219  -3.180  1.00  0.00     0.000 A 
HETATM   20  C   UNL     1       1.621  -2.903  -3.260  1.00  0.00     0.001 A 
HETATM   21  C   UNL     1       1.951  -1.987  -2.257  1.00  0.00     0.010 A 
ENDBRANCH   3  16
TORSDOF 2
