REMARK  3 active torsions:
REMARK  status: ('A' for Active; 'I' for Inactive)
REMARK    1  A    between atoms: C_6  and  O_19 
REMARK    2  A    between atoms: C_6  and  C_8 
REMARK    3  A    between atoms: C_18  and  O_22 
ROOT
HETATM    1  C   UNL     1      -3.550   0.561   1.148  1.00  0.00     0.003 C 
HETATM    2  C   UNL     1      -2.711   1.452   0.162  1.00  0.00     0.002 C 
HETATM    3  C   UNL     1      -1.235   1.256   0.330  1.00  0.00    -0.001 C 
HETATM    4  C   UNL     1      -0.884  -0.149  -0.233  1.00  0.00     0.023 C 
HETATM    5  C   UNL     1       0.627  -0.365  -0.045  1.00  0.00    -0.047 A 
HETATM    6  C   UNL     1      -4.809   1.506   1.327  1.00  0.00     0.128 C 
HETATM    7  C   UNL     1       1.501   0.756   0.062  1.00  0.00    -0.049 A 
HETATM    8  C   UNL     1      -3.453  -0.795   0.374  1.00  0.00     0.014 C 
HETATM    9  C   UNL     1      -1.918  -1.253   0.237  1.00  0.00     0.010 C 
HETATM   10  C   UNL     1      -3.291   2.849   0.120  1.00  0.00     0.010 C 
HETATM   11  C   UNL     1      -0.420   2.314  -0.404  1.00  0.00     0.010 C 
HETATM   12  C   UNL     1       1.210  -1.639  -0.066  1.00  0.00     0.011 A 
HETATM   13  C   UNL     1       1.018   2.186   0.042  1.00  0.00     0.039 C 
HETATM   14  C   UNL     1      -4.768   2.510   0.167  1.00  0.00     0.052 C 
HETATM   15  C   UNL     1       2.882   0.584   0.238  1.00  0.00     0.044 A 
HETATM   16  C   UNL     1       3.420  -0.689   0.248  1.00  0.00     0.066 A 
HETATM   17  C   UNL     1       2.600  -1.796   0.077  1.00  0.00     0.037 A 
HETATM   18  C   UNL     1      -3.004   0.195   2.567  1.00  0.00     0.020 C 
ENDROOT
BRANCH   6  19
HETATM   19  O   UNL     1      -4.572   2.338   2.494  1.00  0.00    -0.377 OA
HETATM   20  H   UNL     1      -5.220   3.060   2.484  1.00  0.00     0.211 HD
ENDBRANCH   6  19
BRANCH   6  21
HETATM   21  C   UNL     1      -6.159   0.988   1.503  1.00  0.00    -0.078 C 
HETATM   22  C   UNL     1      -7.339   0.951   1.745  1.00  0.00     0.015 C 
ENDBRANCH   6  21
BRANCH  16  23
HETATM   23  O   UNL     1       4.759  -0.879   0.417  1.00  0.00    -0.361 OA
HETATM   24  H   UNL     1       5.170  -0.014   0.588  1.00  0.00     0.217 HD
ENDBRANCH  16  23
TORSDOF 3
