REMARK  5 active torsions:
REMARK  status: ('A' for Active; 'I' for Inactive)
REMARK    1  A    between atoms: C_1  and  C_9 
REMARK    2  A    between atoms: C_5  and  O_7 
REMARK    3  A    between atoms: C_9  and  C_10 
REMARK    4  A    between atoms: C_9  and  O_11 
REMARK    5  A    between atoms: C_10  and  O_12 
ROOT
HETATM    1  C   UNL     1      -0.151   1.209   0.325  1.00  0.00     0.239 A 
HETATM    2  O   UNL     1      -1.117   0.132   0.196  1.00  0.00    -0.300 OA
HETATM    3  C   UNL     1       1.183   0.531   0.166  1.00  0.00     0.220 A 
HETATM    4  C   UNL     1      -0.468  -1.047  -0.038  1.00  0.00     0.321 A 
HETATM    5  C   UNL     1       0.973  -0.766  -0.055  1.00  0.00     0.191 A 
HETATM    6  O   UNL     1       2.226   1.224   0.294  1.00  0.00    -0.287 OA
HETATM    7  O   UNL     1      -1.013  -2.128  -0.178  1.00  0.00    -0.257 OA
ENDROOT
BRANCH   1   8
HETATM    8  C   UNL     1      -0.533   2.317  -0.700  1.00  0.00     0.179 C 
BRANCH   8   9
HETATM    9  C   UNL     1       0.261   3.621  -0.514  1.00  0.00     0.198 C 
BRANCH   9  10
HETATM   10  O   UNL     1       1.582   3.576  -1.033  1.00  0.00    -0.398 OA
HETATM   11  H   UNL     1       2.003   2.778  -0.612  1.00  0.00     0.209 HD
ENDBRANCH   9  10
ENDBRANCH   8   9
BRANCH   8  12
HETATM   12  O   UNL     1      -1.937   2.660  -0.568  1.00  0.00    -0.390 OA
HETATM   13  H   UNL     1      -2.196   2.427   0.340  1.00  0.00     0.210 HD
ENDBRANCH   8  12
ENDBRANCH   1   8
BRANCH   5  14
HETATM   14  O   UNL     1       1.982  -1.679  -0.217  1.00  0.00    -0.353 OA
HETATM   15  H   UNL     1       2.764  -1.091  -0.130  1.00  0.00     0.218 HD
ENDBRANCH   5  14
TORSDOF 5
