REMARK  2 active torsions:
REMARK  status: ('A' for Active; 'I' for Inactive)
REMARK    1  A    between atoms: C_12  and  O_19 
REMARK    2  A    between atoms: C_16  and  O_20 
ROOT
HETATM    1  C   UNL     1      -3.545  -0.456   0.695  1.00  0.00    -0.014 C 
HETATM    2  C   UNL     1      -2.826   0.895   0.482  1.00  0.00     0.001 C 
HETATM    3  C   UNL     1      -1.281   0.835   0.441  1.00  0.00    -0.001 C 
HETATM    4  C   UNL     1      -0.695  -0.339  -0.378  1.00  0.00     0.023 C 
HETATM    5  C   UNL     1       0.831  -0.332  -0.237  1.00  0.00    -0.047 A 
HETATM    6  C   UNL     1       1.518   0.887  -0.031  1.00  0.00    -0.049 A 
HETATM    7  C   UNL     1      -2.875  -1.615  -0.056  1.00  0.00     0.013 C 
HETATM    8  C   UNL     1      -1.354  -1.666   0.021  1.00  0.00     0.010 C 
HETATM    9  C   UNL     1      -0.706   2.135  -0.152  1.00  0.00     0.010 C 
HETATM   10  C   UNL     1      -3.297   1.760   1.677  1.00  0.00     0.008 C 
HETATM   11  C   UNL     1       1.587  -1.516  -0.312  1.00  0.00     0.011 A 
HETATM   12  C   UNL     1      -3.590  -0.607   2.234  1.00  0.00     0.126 C 
HETATM   13  C   UNL     1       0.800   2.211   0.074  1.00  0.00     0.039 C 
HETATM   14  C   UNL     1       2.913   0.886   0.156  1.00  0.00     0.044 A 
HETATM   15  C   UNL     1      -3.839   0.809   2.752  1.00  0.00     0.033 C 
HETATM   16  C   UNL     1       3.621  -0.308   0.125  1.00  0.00     0.066 A 
HETATM   17  C   UNL     1       2.970  -1.506  -0.121  1.00  0.00     0.037 A 
HETATM   18  C   UNL     1      -5.005  -0.354   0.178  1.00  0.00     0.018 C 
ENDROOT
BRANCH  12  19
HETATM   19  O   UNL     1      -2.395  -1.129   2.794  1.00  0.00    -0.395 OA
HETATM   20  H   UNL     1      -1.757  -0.409   2.926  1.00  0.00     0.210 HD
ENDBRANCH  12  19
BRANCH  16  21
HETATM   21  O   UNL     1       4.966  -0.345   0.343  1.00  0.00    -0.361 OA
HETATM   22  H   UNL     1       5.262   0.549   0.581  1.00  0.00     0.217 HD
ENDBRANCH  16  21
TORSDOF 2
