REMARK  2 active torsions:
REMARK  status: ('A' for Active; 'I' for Inactive)
REMARK    1  A    between atoms: C_9  and  O_12 
REMARK    2  A    between atoms: O_12  and  C_13 
ROOT
HETATM    1  C   UNL     1       0.886   0.067  -0.001  1.00  0.00     0.049 C 
HETATM    2  C   UNL     1       2.385   0.011  -0.024  1.00  0.00    -0.051 C 
HETATM    3  C   UNL     1       3.047  -1.159  -0.026  1.00  0.00     0.011 C 
HETATM    4  C   UNL     1       4.547  -1.322  -0.064  1.00  0.00     0.041 C 
HETATM    5  N   UNL     1       5.249  -0.051   0.108  1.00  0.00    -0.377 N 
HETATM    6  C   UNL     1       4.586   1.165  -0.046  1.00  0.00     0.040 A 
HETATM    7  C   UNL     1       3.181   1.256  -0.060  1.00  0.00    -0.001 A 
HETATM    8  C   UNL     1       2.580   2.526  -0.105  1.00  0.00     0.051 A 
HETATM    9  C   UNL     1       3.345   3.697  -0.114  1.00  0.00     0.069 A 
HETATM   10  C   UNL     1       4.731   3.603  -0.083  1.00  0.00     0.039 A 
HETATM   11  C   UNL     1       5.342   2.346  -0.037  1.00  0.00     0.033 A 
HETATM   12  C   UNL     1       4.958  -1.942  -1.407  1.00  0.00     0.042 C 
HETATM   13  C   UNL     1       4.988  -2.240   1.086  1.00  0.00     0.042 C 
HETATM   14  H   UNL     1       6.209  -0.048  -0.216  1.00  0.00     0.160 HD
ENDROOT
BRANCH   9  15
HETATM   15  O   UNL     1       2.617   4.855  -0.143  1.00  0.00    -0.351 OA
BRANCH  15  16
HETATM   16  C   UNL     1       3.345   6.080  -0.079  1.00  0.00     0.171 C 
HETATM   17  C   UNL     1       2.344   7.221  -0.057  1.00  0.00     0.034 C 
ENDBRANCH  15  16
ENDBRANCH   9  15
TORSDOF 2
