REMARK  3 active torsions:
REMARK  status: ('A' for Active; 'I' for Inactive)
REMARK    1  A    between atoms: C_1  and  C_2 
REMARK    2  A    between atoms: C_1  and  O_4 
REMARK    3  A    between atoms: C_2  and  O_3 
ROOT
HETATM    1  C   UNL     1       0.933  -0.034   0.043  1.00  0.00     0.190 C 
ENDROOT
BRANCH   1   2
HETATM    2  C   UNL     1       0.387  -0.726   1.288  1.00  0.00     0.190 C 
BRANCH   2   3
HETATM    3  O   UNL     1      -1.034  -0.709   1.306  1.00  0.00    -0.399 OA
HETATM    4  H   UNL     1      -1.321   0.220   1.344  1.00  0.00     0.209 HD
ENDBRANCH   2   3
ENDBRANCH   1   2
BRANCH   1   5
HETATM    5  O   UNL     1       2.354  -0.010   0.048  1.00  0.00    -0.399 OA
HETATM    6  H   UNL     1       2.641   0.513   0.816  1.00  0.00     0.209 HD
ENDBRANCH   1   5
TORSDOF 3
