REMARK  0 active torsions:
REMARK  status: ('A' for Active; 'I' for Inactive)
ROOT
HETATM    1  S   UNL     1       1.335  -0.073   0.778  1.00  0.00    -0.041 SA
HETATM    2  C   UNL     1       2.858  -0.017   0.161  1.00  0.00     0.167 C 
HETATM    3  N   UNL     1       3.605  -1.105  -0.242  1.00  0.00    -0.366 N 
HETATM    4  C   UNL     1       4.942  -0.703  -0.598  1.00  0.00     0.141 C 
HETATM    5  C   UNL     1       4.838   0.816  -0.721  1.00  0.00     0.141 C 
HETATM    6  N   UNL     1       3.606   1.125  -0.040  1.00  0.00    -0.366 N 
HETATM    7  H   UNL     1       3.292  -2.055  -0.084  1.00  0.00     0.161 HD
HETATM    8  H   UNL     1       3.213   2.049   0.089  1.00  0.00     0.161 HD
ENDROOT
TORSDOF 0
