REMARK  19 active torsions:
REMARK  status: ('A' for Active; 'I' for Inactive)
REMARK    1  A    between atoms: C_2  and  C_3 
REMARK    2  A    between atoms: C_3  and  C_4 
REMARK    3  A    between atoms: C_3  and  C_23 
REMARK    4  A    between atoms: C_4  and  O_5 
REMARK    5  A    between atoms: O_5  and  C_6 
REMARK    6  A    between atoms: C_6  and  C_8 
REMARK    7  A    between atoms: C_8  and  C_9 
REMARK    8  A    between atoms: C_9  and  C_10 
REMARK    9  A    between atoms: C_10  and  C_11 
REMARK   10  A    between atoms: C_11  and  C_12 
REMARK   11  A    between atoms: C_12  and  O_14 
REMARK   12  A    between atoms: O_14  and  C_15 
REMARK   13  A    between atoms: C_15  and  C_16 
REMARK   14  A    between atoms: C_16  and  C_17 
REMARK   15  A    between atoms: C_16  and  C_21 
REMARK   16  A    between atoms: C_17  and  C_18 
REMARK   17  A    between atoms: C_18  and  C_19 
REMARK   18  A    between atoms: C_23  and  C_24 
REMARK   19  A    between atoms: C_24  and  C_25 
ROOT
HETATM    1  C   UNL     1      -1.660  -3.668  -3.436  1.00  0.00     0.010 C 
ENDROOT
BRANCH   1   2
HETATM    2  C   UNL     1      -1.014  -2.989  -2.230  1.00  0.00     0.111 C 
BRANCH   2   3
HETATM    3  C   UNL     1       0.492  -3.013  -2.321  1.00  0.00     0.258 C 
HETATM    4  O   UNL     1       1.139  -3.484  -3.247  1.00  0.00    -0.265 OA
BRANCH   3   5
HETATM    5  O   UNL     1       1.025  -2.412  -1.219  1.00  0.00    -0.321 OA
BRANCH   5   6
HETATM    6  C   UNL     1       2.454  -2.316  -1.246  1.00  0.00     0.183 C 
BRANCH   6   7
HETATM    7  C   UNL     1       2.975  -1.560  -0.010  1.00  0.00     0.010 C 
BRANCH   7   8
HETATM    8  C   UNL     1       2.525  -0.078   0.025  1.00  0.00     0.002 C 
HETATM    9  C   UNL     1       1.026   0.150   0.157  1.00  0.00     0.005 C 
ENDBRANCH   7   8
BRANCH   7  10
HETATM   10  C   UNL     1       4.524  -1.592   0.046  1.00  0.00     0.007 C 
BRANCH  10  11
HETATM   11  C   UNL     1       5.125  -2.997   0.156  1.00  0.00     0.000 C 
BRANCH  11  12
HETATM   12  C   UNL     1       6.652  -2.947   0.222  1.00  0.00    -0.005 C 
HETATM   13  C   UNL     1       7.248  -4.346   0.259  1.00  0.00     0.005 C 
ENDBRANCH  11  12
ENDBRANCH  10  11
ENDBRANCH   7  10
ENDBRANCH   6   7
ENDBRANCH   5   6
ENDBRANCH   3   5
ENDBRANCH   2   3
ENDBRANCH   1   2
BRANCH   1  14
HETATM   14  C   UNL     1      -3.184  -3.598  -3.362  1.00  0.00     0.010 C 
BRANCH  14  15
HETATM   15  C   UNL     1      -3.832  -4.254  -4.579  1.00  0.00     0.111 C 
BRANCH  15  16
HETATM   16  C   UNL     1      -5.339  -4.237  -4.485  1.00  0.00     0.258 C 
HETATM   17  O   UNL     1      -5.984  -3.915  -3.497  1.00  0.00    -0.265 OA
BRANCH  16  18
HETATM   18  O   UNL     1      -5.870  -4.692  -5.654  1.00  0.00    -0.321 OA
BRANCH  18  19
HETATM   19  C   UNL     1      -7.281  -4.934  -5.614  1.00  0.00     0.183 C 
BRANCH  19  20
HETATM   20  C   UNL     1      -7.713  -5.801  -6.816  1.00  0.00     0.010 C 
BRANCH  20  21
HETATM   21  C   UNL     1      -7.162  -7.250  -6.747  1.00  0.00     0.007 C 
BRANCH  21  22
HETATM   22  C   UNL     1      -5.634  -7.361  -6.757  1.00  0.00     0.000 C 
BRANCH  22  23
HETATM   23  C   UNL     1      -5.165  -8.813  -6.857  1.00  0.00    -0.005 C 
HETATM   24  C   UNL     1      -3.646  -8.896  -6.845  1.00  0.00     0.005 C 
ENDBRANCH  22  23
ENDBRANCH  21  22
ENDBRANCH  20  21
BRANCH  20  25
HETATM   25  C   UNL     1      -9.258  -5.793  -6.877  1.00  0.00     0.002 C 
HETATM   26  C   UNL     1      -9.846  -6.477  -8.103  1.00  0.00     0.005 C 
ENDBRANCH  20  25
ENDBRANCH  19  20
ENDBRANCH  18  19
ENDBRANCH  16  18
ENDBRANCH  15  16
ENDBRANCH  14  15
ENDBRANCH   1  14
TORSDOF 19
