REMARK  16 active torsions:
REMARK  status: ('A' for Active; 'I' for Inactive)
REMARK    1  A    between atoms: C_2  and  C_3 
REMARK    2  A    between atoms: C_2  and  O_20 
REMARK    3  A    between atoms: C_4  and  C_9 
REMARK    4  A    between atoms: C_9  and  O_11 
REMARK    5  A    between atoms: O_11  and  C_12 
REMARK    6  A    between atoms: C_12  and  C_13 
REMARK    7  A    between atoms: C_13  and  C_14 
REMARK    8  A    between atoms: C_13  and  C_18 
REMARK    9  A    between atoms: C_14  and  C_15 
REMARK   10  A    between atoms: C_15  and  C_16 
REMARK   11  A    between atoms: O_20  and  C_21 
REMARK   12  A    between atoms: C_21  and  C_22 
REMARK   13  A    between atoms: C_22  and  C_23 
REMARK   14  A    between atoms: C_22  and  C_27 
REMARK   15  A    between atoms: C_23  and  C_24 
REMARK   16  A    between atoms: C_24  and  C_25 
ROOT
HETATM    1  C   UNL     1       3.090   1.401  -0.237  1.00  0.00     0.055 A 
HETATM    2  C   UNL     1       2.390   2.467   0.355  1.00  0.00     0.055 A 
HETATM    3  C   UNL     1       2.997   3.742   0.390  1.00  0.00     0.018 A 
HETATM    4  C   UNL     1       4.240   3.973  -0.197  1.00  0.00     0.001 A 
HETATM    5  C   UNL     1       4.900   2.934  -0.833  1.00  0.00     0.001 A 
HETATM    6  C   UNL     1       4.322   1.665  -0.867  1.00  0.00     0.018 A 
ENDROOT
BRANCH   1   7
HETATM    7  C   UNL     1       2.488   0.052  -0.386  1.00  0.00     0.294 C 
HETATM    8  O   UNL     1       1.473  -0.098  -1.050  1.00  0.00    -0.259 OA
BRANCH   7   9
HETATM    9  O   UNL     1       3.077  -0.958   0.320  1.00  0.00    -0.317 OA
BRANCH   9  10
HETATM   10  C   UNL     1       4.448  -1.291   0.037  1.00  0.00     0.183 C 
BRANCH  10  11
HETATM   11  C   UNL     1       4.773  -2.793   0.224  1.00  0.00     0.010 C 
BRANCH  11  12
HETATM   12  C   UNL     1       4.206  -3.666  -0.923  1.00  0.00     0.007 C 
BRANCH  12  13
HETATM   13  C   UNL     1       2.682  -3.664  -1.043  1.00  0.00     0.000 C 
BRANCH  13  14
HETATM   14  C   UNL     1       2.211  -4.549  -2.199  1.00  0.00    -0.005 C 
HETATM   15  C   UNL     1       0.696  -4.531  -2.320  1.00  0.00     0.005 C 
ENDBRANCH  13  14
ENDBRANCH  12  13
ENDBRANCH  11  12
BRANCH  11  16
HETATM   16  C   UNL     1       6.320  -2.917   0.285  1.00  0.00     0.002 C 
HETATM   17  C   UNL     1       6.865  -4.330   0.441  1.00  0.00     0.005 C 
ENDBRANCH  11  16
ENDBRANCH  10  11
ENDBRANCH   9  10
ENDBRANCH   7   9
ENDBRANCH   1   7
BRANCH   2  18
HETATM   18  C   UNL     1       1.008   2.323   0.906  1.00  0.00     0.294 C 
HETATM   19  O   UNL     1       0.522   1.306   1.364  1.00  0.00    -0.259 OA
BRANCH  18  20
HETATM   20  O   UNL     1       0.387   3.525   0.789  1.00  0.00    -0.317 OA
BRANCH  20  21
HETATM   21  C   UNL     1      -1.023   3.596   1.048  1.00  0.00     0.183 C 
BRANCH  21  22
HETATM   22  C   UNL     1      -1.475   5.080   1.090  1.00  0.00     0.010 C 
BRANCH  22  23
HETATM   23  C   UNL     1      -1.267   5.847  -0.246  1.00  0.00     0.007 C 
BRANCH  23  24
HETATM   24  C   UNL     1       0.185   5.922  -0.723  1.00  0.00     0.000 C 
BRANCH  24  25
HETATM   25  C   UNL     1       0.379   6.882  -1.896  1.00  0.00    -0.005 C 
HETATM   26  C   UNL     1       1.835   6.894  -2.340  1.00  0.00     0.005 C 
ENDBRANCH  24  25
ENDBRANCH  23  24
ENDBRANCH  22  23
BRANCH  22  27
HETATM   27  C   UNL     1      -2.958   5.136   1.531  1.00  0.00     0.002 C 
HETATM   28  C   UNL     1      -3.484   6.541   1.804  1.00  0.00     0.005 C 
ENDBRANCH  22  27
ENDBRANCH  21  22
ENDBRANCH  20  21
ENDBRANCH  18  20
ENDBRANCH   2  18
TORSDOF 16
