REMARK  6 active torsions:
REMARK  status: ('A' for Active; 'I' for Inactive)
REMARK    1  A    between atoms: C_2  and  C_3 
REMARK    2  A    between atoms: C_3  and  C_4 
REMARK    3  A    between atoms: C_4  and  C_5 
REMARK    4  A    between atoms: C_5  and  C_6 
REMARK    5  A    between atoms: C_5  and  C_7 
REMARK    6  A    between atoms: C_6  and  O_9 
ROOT
HETATM    1  C   UNL     1       5.041   2.593  -1.263  1.00  0.00     0.009 C 
ENDROOT
BRANCH   1   2
HETATM    2  C   UNL     1       4.503   1.298  -0.601  1.00  0.00     0.007 C 
BRANCH   2   3
HETATM    3  C   UNL     1       2.979   1.157  -0.597  1.00  0.00     0.000 C 
BRANCH   3   4
HETATM    4  C   UNL     1       2.545  -0.210  -0.064  1.00  0.00    -0.005 C 
HETATM    5  C   UNL     1       1.030  -0.330  -0.018  1.00  0.00     0.005 C 
ENDBRANCH   3   4
ENDBRANCH   2   3
ENDBRANCH   1   2
BRANCH   1   6
HETATM    6  C   UNL     1       4.579   3.867  -0.535  1.00  0.00     0.168 C 
BRANCH   6   7
HETATM    7  O   UNL     1       3.194   4.115  -0.739  1.00  0.00    -0.400 OA
HETATM    8  H   UNL     1       3.038   4.144  -1.697  1.00  0.00     0.209 HD
ENDBRANCH   6   7
ENDBRANCH   1   6
BRANCH   1   9
HETATM    9  C   UNL     1       6.584   2.501  -1.315  1.00  0.00     0.002 C 
HETATM   10  C   UNL     1       7.253   3.632  -2.086  1.00  0.00     0.005 C 
ENDBRANCH   1   9
TORSDOF 6
