REMARK  1 active torsions:
REMARK  status: ('A' for Active; 'I' for Inactive)
REMARK    1  A    between atoms: C_6  and  C_8 
ROOT
HETATM    1  O   UNL     1      -1.435   0.785   0.807  1.00  0.00    -0.375 OA
HETATM    2  C   UNL     1      -0.446   1.063  -0.199  1.00  0.00     0.151 A 
HETATM    3  C   UNL     1      -1.193  -0.241  -0.156  1.00  0.00     0.151 A 
HETATM    4  C   UNL     1      -0.422  -1.425   0.321  1.00  0.00     0.035 C 
HETATM    5  C   UNL     1       0.953  -1.406  -0.340  1.00  0.00     0.010 C 
HETATM    6  C   UNL     1       1.786  -0.151   0.017  1.00  0.00     0.019 C 
HETATM    7  C   UNL     1       0.954   1.116   0.330  1.00  0.00     0.041 C 
ENDROOT
BRANCH   6   8
HETATM    8  C   UNL     1       2.712  -0.449   1.174  1.00  0.00     0.149 A 
HETATM    9  C   UNL     1       4.165  -0.045   1.139  1.00  0.00     0.200 A 
HETATM   10  O   UNL     1       3.752  -1.391   0.872  1.00  0.00    -0.381 OA
ENDBRANCH   6   8
TORSDOF 1
