REMARK  4 active torsions:
REMARK  status: ('A' for Active; 'I' for Inactive)
REMARK    1  A    between atoms: O_1  and  C_2 
REMARK    2  A    between atoms: C_3  and  O_11 
REMARK    3  A    between atoms: C_5  and  C_8 
REMARK    4  A    between atoms: C_8  and  C_9 
ROOT
HETATM    1  C   UNL     1       2.425   0.074   0.021  1.00  0.00     0.099 A 
HETATM    2  C   UNL     1       3.077   1.307  -0.065  1.00  0.00     0.101 A 
HETATM    3  C   UNL     1       4.468   1.331  -0.220  1.00  0.00     0.047 A 
HETATM    4  C   UNL     1       5.208   0.137  -0.290  1.00  0.00    -0.052 A 
HETATM    5  C   UNL     1       4.511  -1.086  -0.205  1.00  0.00     0.010 A 
HETATM    6  C   UNL     1       3.125  -1.119  -0.049  1.00  0.00     0.040 A 
ENDROOT
BRANCH   4   7
HETATM    7  C   UNL     1       6.718   0.060  -0.438  1.00  0.00     0.065 C 
BRANCH   7   8
HETATM    8  C   UNL     1       7.507   1.338  -0.530  1.00  0.00    -0.032 C 
HETATM    9  C   UNL     1       8.784   1.375  -0.943  1.00  0.00     0.007 C 
ENDBRANCH   7   8
ENDBRANCH   4   7
BRANCH   2  10
HETATM   10  O   UNL     1       2.254   2.402   0.016  1.00  0.00    -0.353 OA
HETATM   11  C   UNL     1       2.869   3.676  -0.140  1.00  0.00     0.210 C 
ENDBRANCH   2  10
BRANCH   1  12
HETATM   12  O   UNL     1       1.066   0.021   0.175  1.00  0.00    -0.358 OA
HETATM   13  H   UNL     1       0.782   0.955   0.200  1.00  0.00     0.217 HD
ENDBRANCH   1  12
TORSDOF 4
