REMARK  5 active torsions:
REMARK  status: ('A' for Active; 'I' for Inactive)
REMARK    1  A    between atoms: P_2  and  O_3 
REMARK    2  A    between atoms: P_2  and  O_13 
REMARK    3  A    between atoms: P_2  and  O_15 
REMARK    4  A    between atoms: O_3  and  C_4 
REMARK    5  A    between atoms: C_7  and  S_10 
ROOT
HETATM    1  C   UNL     1       3.045   2.594  -0.363  1.00  0.00     0.079 A 
HETATM    2  C   UNL     1       4.230   3.136  -0.845  1.00  0.00     0.045 A 
HETATM    3  C   UNL     1       4.226   4.328  -1.602  1.00  0.00    -0.043 A 
HETATM    4  C   UNL     1       2.999   4.970  -1.900  1.00  0.00     0.006 A 
HETATM    5  C   UNL     1       1.818   4.404  -1.404  1.00  0.00     0.022 A 
HETATM    6  C   UNL     1       1.844   3.244  -0.623  1.00  0.00     0.039 A 
HETATM    7  C   UNL     1       5.553   4.909  -2.021  1.00  0.00     0.049 C 
ENDROOT
BRANCH   1   8
HETATM    8  O   UNL     1       3.067   1.539   0.521  1.00  0.00    -0.272 OA
BRANCH   8   9
HETATM    9  P   UNL     1       2.959  -0.066   0.042  1.00  0.00     0.333 P 
HETATM   10  S   UNL     1       1.062  -0.066   0.042  1.00  0.00    -0.007 SA
BRANCH   9  11
HETATM   11  O   UNL     1       3.045  -0.779   1.544  1.00  0.00    -0.319 OA
HETATM   12  C   UNL     1       2.973  -2.191   1.633  1.00  0.00     0.212 C 
ENDBRANCH   9  11
BRANCH   9  13
HETATM   13  O   UNL     1       4.689  -0.066   0.042  1.00  0.00    -0.319 OA
HETATM   14  C   UNL     1       5.454   0.339   1.169  1.00  0.00     0.212 C 
ENDBRANCH   9  13
ENDBRANCH   8   9
ENDBRANCH   1   8
BRANCH   4  15
HETATM   15  S   UNL     1       3.006   6.494  -2.861  1.00  0.00    -0.134 SA
HETATM   16  C   UNL     1       1.260   6.973  -2.959  1.00  0.00     0.095 C 
ENDBRANCH   4  15
TORSDOF 5
