REMARK  6 active torsions:
REMARK  status: ('A' for Active; 'I' for Inactive)
REMARK    1  A    between atoms: N_4  and  C_6 
REMARK    2  A    between atoms: C_6  and  C_7 
REMARK    3  A    between atoms: C_7  and  C_8 
REMARK    4  A    between atoms: C_7  and  C_14 
REMARK    5  A    between atoms: C_7  and  O_22 
REMARK    6  A    between atoms: C_8  and  N_9 
ROOT
HETATM    1  C   UNL     1       3.184   0.537  -0.105  1.00  0.00     0.124 C 
ENDROOT
BRANCH   1   2
HETATM    2  C   UNL     1       1.824   1.298  -0.009  1.00  0.00     0.197 C 
BRANCH   2   3
HETATM    3  N   UNL     1       0.585   0.613   0.282  1.00  0.00    -0.259 N 
HETATM    4  N   UNL     1      -0.554   1.341   0.298  1.00  0.00    -0.165 NA
HETATM    5  C   UNL     1      -1.476   0.399   0.503  1.00  0.00     0.256 A 
HETATM    6  N   UNL     1      -0.992  -0.869   0.619  1.00  0.00    -0.234 NA
HETATM    7  C   UNL     1       0.302  -0.703   0.470  1.00  0.00     0.230 A 
ENDBRANCH   2   3
ENDBRANCH   1   2
BRANCH   1   8
HETATM    8  C   UNL     1       3.568  -0.239   1.189  1.00  0.00     0.197 C 
BRANCH   8   9
HETATM    9  N   UNL     1       3.545   0.557   2.396  1.00  0.00    -0.259 N 
HETATM   10  N   UNL     1       2.386   0.845   3.003  1.00  0.00    -0.165 NA
HETATM   11  C   UNL     1       2.805   1.563   4.049  1.00  0.00     0.256 A 
HETATM   12  N   UNL     1       4.158   1.738   4.122  1.00  0.00    -0.234 NA
HETATM   13  C   UNL     1       4.600   1.078   3.076  1.00  0.00     0.230 A 
ENDBRANCH   8   9
ENDBRANCH   1   8
BRANCH   1  14
HETATM   14  C   UNL     1       3.380  -0.373  -1.335  1.00  0.00     0.018 A 
HETATM   15  C   UNL     1       2.392  -0.630  -2.299  1.00  0.00     0.128 A 
HETATM   16  C   UNL     1       2.605  -1.483  -3.381  1.00  0.00     0.085 A 
HETATM   17  F   UNL     1       1.192  -0.046  -2.230  1.00  0.00    -0.205 F 
HETATM   18  C   UNL     1       3.842  -2.080  -3.541  1.00  0.00     0.119 A 
HETATM   19  C   UNL     1       4.869  -1.825  -2.647  1.00  0.00     0.043 A 
HETATM   20  F   UNL     1       4.055  -2.899  -4.579  1.00  0.00    -0.206 F 
HETATM   21  C   UNL     1       4.642  -0.974  -1.560  1.00  0.00     0.016 A 
ENDBRANCH   1  14
BRANCH   1  22
HETATM   22  O   UNL     1       4.222   1.544  -0.295  1.00  0.00    -0.381 OA
HETATM   23  H   UNL     1       3.995   2.344   0.216  1.00  0.00     0.211 HD
ENDBRANCH   1  22
TORSDOF 6
