REMARK  2 active torsions:
REMARK  status: ('A' for Active; 'I' for Inactive)
REMARK       I    between atoms: C_2  and  N_3 
REMARK       I    between atoms: C_2  and  N_14 
REMARK    1  A    between atoms: N_3  and  C_4 
REMARK    2  A    between atoms: C_8  and  C_10 
ROOT
HETATM    1  C   UNL     1       1.952   1.307   1.886  1.00  0.00     0.037 A 
HETATM    2  C   UNL     1       1.135   0.500   2.678  1.00  0.00     0.029 A 
HETATM    3  C   UNL     1       0.630   0.974   3.892  1.00  0.00     0.003 A 
HETATM    4  C   UNL     1       0.945   2.259   4.328  1.00  0.00     0.016 A 
HETATM    5  C   UNL     1       1.777   3.082   3.557  1.00  0.00     0.050 A 
HETATM    6  C   UNL     1       2.276   2.594   2.337  1.00  0.00     0.045 A 
ENDROOT
BRANCH   1   7
HETATM    7  N   UNL     1       2.506   0.890   0.660  1.00  0.00    -0.309 N 
HETATM    8  C   UNL     1       2.128  -0.197  -0.098  1.00  0.00     0.322 C 
HETATM    9  O   UNL     1       1.117  -0.866   0.100  1.00  0.00    -0.247 OA
HETATM   10  N   UNL     1       2.980  -0.458  -1.173  1.00  0.00    -0.343 N 
HETATM   11  C   UNL     1       2.554  -1.459  -2.136  1.00  0.00     0.154 C 
HETATM   12  C   UNL     1       4.399  -0.128  -1.194  1.00  0.00     0.154 C 
HETATM   13  H   UNL     1       3.066   1.567   0.166  1.00  0.00     0.170 HD
ENDBRANCH   1   7
BRANCH   5  14
HETATM   14  C   UNL     1       2.100   4.480   4.021  1.00  0.00     0.417 C 
HETATM   15  F   UNL     1       1.065   5.343   3.828  1.00  0.00    -0.166 F 
HETATM   16  F   UNL     1       2.398   4.543   5.348  1.00  0.00    -0.166 F 
HETATM   17  F   UNL     1       3.168   5.029   3.375  1.00  0.00    -0.166 F 
ENDBRANCH   5  14
TORSDOF 2
