REMARK  1 active torsions:
REMARK  status: ('A' for Active; 'I' for Inactive)
REMARK    1  A    between atoms: C_2  and  C_3 
ROOT
HETATM    1  C   UNL     1       3.001   0.381   1.338  1.00  0.00     0.112 A 
HETATM    2  C   UNL     1       3.047   1.593   1.998  1.00  0.00     0.042 A 
HETATM    3  C   UNL     1       3.891   1.409   3.120  1.00  0.00     0.027 A 
HETATM    4  C   UNL     1       4.306   0.099   3.076  1.00  0.00     0.142 A 
HETATM    5  O   UNL     1       3.772  -0.534   1.999  1.00  0.00    -0.320 OA
ENDROOT
BRANCH   1   6
HETATM    6  C   UNL     1       2.312  -0.035   0.147  1.00  0.00     0.295 C 
HETATM    7  O   UNL     1       1.582   0.682  -0.533  1.00  0.00    -0.299 OA
ENDBRANCH   1   6
TORSDOF 1
