REMARK  4 active torsions:
REMARK  status: ('A' for Active; 'I' for Inactive)
REMARK    1  A    between atoms: C_3  and  C_9 
REMARK    2  A    between atoms: C_3  and  C_10 
REMARK    3  A    between atoms: C_11  and  N_14 
REMARK    4  A    between atoms: C_12  and  N_13 
ROOT
HETATM    1  C   UNL     1       1.406  -0.209  -0.100  1.00  0.00    -0.024 C 
HETATM    2  N   UNL     1      -2.567   0.511   0.268  1.00  0.00    -0.390 N 
HETATM    3  C   UNL     1       2.640  -0.467   0.441  1.00  0.00    -0.005 C 
HETATM    4  C   UNL     1      -1.366   0.320  -0.193  1.00  0.00     0.029 C 
HETATM    5  C   UNL     1       0.930   1.156  -0.385  1.00  0.00     0.014 C 
HETATM    6  C   UNL     1       0.479  -1.252  -0.550  1.00  0.00     0.014 C 
HETATM    7  C   UNL     1      -0.843  -1.032  -0.586  1.00  0.00     0.030 C 
HETATM    8  C   UNL     1      -0.383   1.430  -0.426  1.00  0.00     0.030 C 
HETATM    9  C   UNL     1      -3.527  -0.612   0.528  1.00  0.00     0.149 C 
HETATM   10  C   UNL     1      -3.107   1.860   0.637  1.00  0.00     0.149 C 
ENDROOT
BRANCH   3  11
HETATM   11  C   UNL     1       3.140  -1.868   0.752  1.00  0.00    -0.024 C 
HETATM   12  C   UNL     1       4.501  -2.175   0.665  1.00  0.00     0.014 C 
HETATM   13  C   UNL     1       4.974  -3.496   0.755  1.00  0.00     0.030 C 
HETATM   14  C   UNL     1       4.120  -4.590   0.923  1.00  0.00     0.029 C 
HETATM   15  C   UNL     1       2.790  -4.252   1.208  1.00  0.00     0.030 C 
HETATM   16  C   UNL     1       2.318  -2.923   1.158  1.00  0.00     0.014 C 
BRANCH  14  17
HETATM   17  N   UNL     1       4.549  -5.898   0.754  1.00  0.00    -0.390 N 
HETATM   18  C   UNL     1       5.967  -6.254   0.772  1.00  0.00     0.149 C 
HETATM   19  C   UNL     1       3.629  -7.030   0.798  1.00  0.00     0.149 C 
ENDBRANCH  14  17
ENDBRANCH   3  11
BRANCH   3  20
HETATM   20  C   UNL     1       3.546   0.715   0.636  1.00  0.00    -0.024 A 
HETATM   21  C   UNL     1       3.372   1.609   1.696  1.00  0.00     0.014 A 
HETATM   22  C   UNL     1       4.213   2.722   1.821  1.00  0.00     0.024 A 
HETATM   23  C   UNL     1       5.274   2.948   0.929  1.00  0.00     0.009 A 
HETATM   24  C   UNL     1       5.438   2.049  -0.129  1.00  0.00     0.024 A 
HETATM   25  C   UNL     1       4.570   0.964  -0.290  1.00  0.00     0.014 A 
BRANCH  23  26
HETATM   26  N   UNL     1       6.111   4.054   1.144  1.00  0.00    -0.292 NA
HETATM   27  C   UNL     1       5.531   5.304   0.645  1.00  0.00     0.116 C 
HETATM   28  C   UNL     1       7.525   3.876   0.806  1.00  0.00     0.116 C 
ENDBRANCH  23  26
ENDBRANCH   3  20
TORSDOF 4
