REMARK  5 active torsions:
REMARK  status: ('A' for Active; 'I' for Inactive)
REMARK    1  A    between atoms: C_1  and  O_2 
REMARK    2  A    between atoms: C_1  and  C_5 
REMARK    3  A    between atoms: C_1  and  C_6 
REMARK    4  A    between atoms: O_3  and  C_6 
REMARK    5  A    between atoms: O_4  and  C_5 
ROOT
HETATM    1  C   UNL     1       1.023  -0.070   0.040  1.00  0.00     0.165 C 
ENDROOT
BRANCH   1   2
HETATM    2  O   UNL     1       0.560  -0.204  -1.315  1.00  0.00    -0.391 OA
HETATM    3  H   UNL     1       0.902  -1.037  -1.676  1.00  0.00     0.210 HD
ENDBRANCH   1   2
BRANCH   1   4
HETATM    4  C   UNL     1       0.500  -1.239   0.888  1.00  0.00     0.198 C 
BRANCH   4   5
HETATM    5  O   UNL     1      -0.918  -1.181   1.004  1.00  0.00    -0.398 OA
HETATM    6  H   UNL     1      -1.208  -1.978   1.479  1.00  0.00     0.209 HD
ENDBRANCH   4   5
ENDBRANCH   1   4
BRANCH   1   7
HETATM    7  C   UNL     1       2.559  -0.038   0.067  1.00  0.00     0.198 C 
BRANCH   7   8
HETATM    8  O   UNL     1       3.048   1.134  -0.580  1.00  0.00    -0.398 OA
HETATM    9  H   UNL     1       4.018   1.072  -0.607  1.00  0.00     0.209 HD
ENDBRANCH   7   8
ENDBRANCH   1   7
TORSDOF 5
