REMARK  0 active torsions:
REMARK  status: ('A' for Active; 'I' for Inactive)
ROOT
HETATM    1  C   UNL     1       0.767   1.264  -0.197  1.00  0.00     0.122 C 
HETATM    2  C   UNL     1       1.508  -0.001   0.286  1.00  0.00     0.122 C 
HETATM    3  C   UNL     1      -0.716   1.297   0.227  1.00  0.00     0.122 C 
HETATM    4 CL   UNL     1       1.605   2.781   0.300  1.00  0.00    -0.122 Cl
HETATM    5  C   UNL     1       0.766  -1.266  -0.196  1.00  0.00     0.122 C 
HETATM    6 CL   UNL     1       3.192  -0.002  -0.377  1.00  0.00    -0.122 Cl
HETATM    7  C   UNL     1      -1.454   0.000  -0.159  1.00  0.00     0.122 C 
HETATM    8 CL   UNL     1      -0.914   1.633   1.984  1.00  0.00    -0.122 Cl
HETATM    9  C   UNL     1      -0.717  -1.297   0.228  1.00  0.00     0.122 C 
HETATM   10 CL   UNL     1       1.603  -2.783   0.302  1.00  0.00    -0.122 Cl
HETATM   11 CL   UNL     1      -1.706  -0.000  -1.953  1.00  0.00    -0.122 Cl
HETATM   12 CL   UNL     1      -0.915  -1.631   1.985  1.00  0.00    -0.122 Cl
ENDROOT
TORSDOF 0
