REMARK  7 active torsions:
REMARK  status: ('A' for Active; 'I' for Inactive)
REMARK    1  A    between atoms: O_1  and  C_2 
REMARK    2  A    between atoms: C_3  and  C_9 
REMARK    3  A    between atoms: C_6  and  O_8 
REMARK    4  A    between atoms: C_9  and  C_10 
REMARK    5  A    between atoms: C_10  and  C_11 
REMARK    6  A    between atoms: C_11  and  C_12 
REMARK    7  A    between atoms: C_12  and  C_13 
ROOT
HETATM    1  C   UNL     1       2.409  -0.027   0.012  1.00  0.00     0.074 A 
HETATM    2  C   UNL     1       3.165   1.155  -0.067  1.00  0.00    -0.025 A 
HETATM    3  C   UNL     1       4.564   1.021  -0.157  1.00  0.00     0.012 A 
HETATM    4  C   UNL     1       5.176  -0.237  -0.178  1.00  0.00     0.037 A 
HETATM    5  C   UNL     1       4.394  -1.381  -0.106  1.00  0.00     0.068 A 
HETATM    6  C   UNL     1       3.014  -1.284  -0.008  1.00  0.00     0.073 A 
ENDROOT
BRANCH   2   7
HETATM    7  C   UNL     1       2.490   2.514  -0.064  1.00  0.00     0.041 C 
BRANCH   7   8
HETATM    8  C   UNL     1       3.407   3.738  -0.173  1.00  0.00     0.005 C 
BRANCH   8   9
HETATM    9  C   UNL     1       2.621   5.051  -0.216  1.00  0.00     0.000 C 
BRANCH   9  10
HETATM   10  C   UNL     1       3.579   6.240  -0.313  1.00  0.00    -0.000 C 
BRANCH  10  11
HETATM   11  C   UNL     1       2.834   7.570  -0.400  1.00  0.00    -0.005 C 
HETATM   12  C   UNL     1       3.806   8.737  -0.490  1.00  0.00     0.005 C 
ENDBRANCH  10  11
ENDBRANCH   9  10
ENDBRANCH   8   9
ENDBRANCH   7   8
ENDBRANCH   2   7
BRANCH   1  13
HETATM   13  O   UNL     1       1.044  -0.034   0.109  1.00  0.00    -0.360 OA
HETATM   14  H   UNL     1       0.712   0.875   0.140  1.00  0.00     0.217 HD
ENDBRANCH   1  13
BRANCH   5  15
HETATM   15  O   UNL     1       4.952  -2.624  -0.131  1.00  0.00    -0.361 OA
HETATM   16  H   UNL     1       5.914  -2.531  -0.227  1.00  0.00     0.217 HD
ENDBRANCH   5  15
TORSDOF 7
