REMARK  3 active torsions:
REMARK  status: ('A' for Active; 'I' for Inactive)
REMARK    1  A    between atoms: N_1  and  C_2 
REMARK    2  A    between atoms: N_1  and  N_8 
REMARK    3  A    between atoms: N_8  and  C_9 
ROOT
HETATM    1  N   UNL     1       1.204  -0.056  -0.327  1.00  0.00    -0.317 N 
HETATM    2  H   UNL     1       0.517   0.647  -0.049  1.00  0.00     0.181 HD
ENDROOT
BRANCH   1   3
HETATM    3  C   UNL     1       0.527  -1.252  -0.672  1.00  0.00     0.043 A 
HETATM    4  C   UNL     1       0.973  -2.521  -0.283  1.00  0.00     0.030 A 
HETATM    5  C   UNL     1       0.307  -3.675  -0.709  1.00  0.00     0.002 A 
HETATM    6  C   UNL     1      -0.800  -3.574  -1.547  1.00  0.00     0.000 A 
HETATM    7  C   UNL     1      -1.246  -2.321  -1.958  1.00  0.00     0.002 A 
HETATM    8  C   UNL     1      -0.584  -1.169  -1.524  1.00  0.00     0.030 A 
ENDBRANCH   1   3
BRANCH   1   9
HETATM    9  N   UNL     1       2.365  -0.038   0.405  1.00  0.00    -0.206 NA
HETATM   10  H   UNL     1       3.025  -0.766   0.124  1.00  0.00     0.153 HD
BRANCH   9  11
HETATM   11  C   UNL     1       3.092   1.160   0.641  1.00  0.00     0.027 A 
HETATM   12  C   UNL     1       2.534   2.433   0.475  1.00  0.00     0.025 A 
HETATM   13  C   UNL     1       3.271   3.583   0.777  1.00  0.00     0.002 A 
HETATM   14  C   UNL     1       4.567   3.474   1.272  1.00  0.00     0.000 A 
HETATM   15  C   UNL     1       5.125   2.215   1.477  1.00  0.00     0.002 A 
HETATM   16  C   UNL     1       4.386   1.068   1.175  1.00  0.00     0.025 A 
ENDBRANCH   9  11
ENDBRANCH   1   9
TORSDOF 3
