REMARK  2 active torsions:
REMARK  status: ('A' for Active; 'I' for Inactive)
REMARK    1  A    between atoms: O_1  and  C_2 
REMARK    2  A    between atoms: C_5  and  O_8 
ROOT
HETATM    1  C   UNL     1       2.433   0.075  -0.069  1.00  0.00     0.065 A 
HETATM    2  C   UNL     1       3.096   1.296  -0.162  1.00  0.00     0.039 A 
HETATM    3  C   UNL     1       4.484   1.315  -0.322  1.00  0.00     0.039 A 
HETATM    4  C   UNL     1       5.184   0.112  -0.387  1.00  0.00     0.065 A 
HETATM    5  C   UNL     1       4.519  -1.106  -0.292  1.00  0.00     0.039 A 
HETATM    6  C   UNL     1       3.134  -1.125  -0.132  1.00  0.00     0.039 A 
ENDROOT
BRANCH   1   7
HETATM    7  O   UNL     1       1.080   0.011   0.085  1.00  0.00    -0.361 OA
HETATM    8  H   UNL     1       0.727   0.915   0.103  1.00  0.00     0.217 HD
ENDBRANCH   1   7
BRANCH   4   9
HETATM    9  O   UNL     1       6.537   0.086  -0.546  1.00  0.00    -0.361 OA
HETATM   10  H   UNL     1       6.861   0.999  -0.607  1.00  0.00     0.217 HD
ENDBRANCH   4   9
TORSDOF 2
