REMARK  2 active torsions:
REMARK  status: ('A' for Active; 'I' for Inactive)
REMARK    1  A    between atoms: C_8  and  S_10 
REMARK    2  A    between atoms: S_10  and  N_13 
ROOT
HETATM    1  O   UNL     1       0.999   0.228   0.241  1.00  0.00    -0.206 OA
HETATM    2  S   UNL     1       2.440   0.155   0.311  1.00  0.00     0.244 S 
HETATM    3  O   UNL     1       3.137  -0.369   1.464  1.00  0.00    -0.206 OA
HETATM    4  C   UNL     1       2.980  -0.746  -1.102  1.00  0.00     0.097 A 
HETATM    5  C   UNL     1       3.459  -0.040  -2.208  1.00  0.00     0.034 A 
HETATM    6  C   UNL     1       3.956  -0.794  -3.280  1.00  0.00     0.050 A 
HETATM    7  C   UNL     1       3.917  -2.199  -3.273  1.00  0.00     0.058 A 
HETATM    8  C   UNL     1       3.402  -2.872  -2.164  1.00  0.00     0.097 A 
HETATM    9  C   UNL     1       2.937  -2.144  -1.064  1.00  0.00     0.053 A 
HETATM   10 CL   UNL     1       4.537  -3.001  -4.671  1.00  0.00    -0.083 Cl
HETATM   11  N   UNL     1       3.614   1.351  -2.226  1.00  0.00    -0.279 NA
HETATM   12  C   UNL     1       2.807   2.130  -1.318  1.00  0.00     0.197 C 
HETATM   13  N   UNL     1       3.064   1.677   0.021  1.00  0.00    -0.203 NA
HETATM   14  H   UNL     1       3.608   1.734  -3.170  1.00  0.00     0.129 HD
HETATM   15  H   UNL     1       4.037   1.744   0.309  1.00  0.00     0.141 HD
ENDROOT
BRANCH   8  16
HETATM   16  S   UNL     1       3.357  -4.634  -2.148  1.00  0.00     0.241 S 
HETATM   17  O   UNL     1       2.388  -5.079  -3.121  1.00  0.00    -0.206 OA
HETATM   18  O   UNL     1       4.710  -5.131  -2.082  1.00  0.00    -0.206 OA
BRANCH  16  19
HETATM   19  N   UNL     1       2.681  -5.033  -0.659  1.00  0.00    -0.225 NA
HETATM   20  H   UNL     1       1.807  -5.540  -0.812  1.00  0.00     0.136 HD
HETATM   21  H   UNL     1       3.362  -5.566  -0.113  1.00  0.00     0.136 HD
ENDBRANCH  16  19
ENDBRANCH   8  16
TORSDOF 2
