REMARK  1 active torsions:
REMARK  status: ('A' for Active; 'I' for Inactive)
REMARK    1  A    between atoms: O_1  and  C_2 
ROOT
HETATM    1  C   UNL     1       2.307   0.078  -0.005  1.00  0.00     0.095 A 
HETATM    2  C   UNL     1       2.957  -1.161   0.012  1.00  0.00     0.039 A 
HETATM    3  C   UNL     1       4.346  -1.207   0.015  1.00  0.00     0.004 A 
HETATM    4  C   UNL     1       5.075  -0.020   0.001  1.00  0.00     0.014 A 
HETATM    5  C   UNL     1       4.418   1.224  -0.015  1.00  0.00    -0.005 A 
HETATM    6  C   UNL     1       5.147   2.421  -0.030  1.00  0.00     0.015 A 
HETATM    7  C   UNL     1       4.481   3.640  -0.047  1.00  0.00     0.020 A 
HETATM    8  C   UNL     1       3.102   3.620  -0.049  1.00  0.00     0.117 A 
HETATM    9  N   UNL     1       2.367   2.488  -0.035  1.00  0.00    -0.257 NA
HETATM   10  C   UNL     1       3.007   1.295  -0.019  1.00  0.00     0.099 A 
ENDROOT
BRANCH   1  11
HETATM   11  O   UNL     1       0.930   0.101  -0.007  1.00  0.00    -0.358 OA
HETATM   12  H   UNL     1       0.592  -0.806  -0.001  1.00  0.00     0.217 HD
ENDBRANCH   1  11
TORSDOF 1
