REMARK  5 active torsions:
REMARK  status: ('A' for Active; 'I' for Inactive)
REMARK    1  A    between atoms: C_3  and  C_22 
REMARK    2  A    between atoms: C_8  and  O_10 
REMARK       I    between atoms: N_12  and  C_13 
REMARK    3  A    between atoms: C_13  and  C_15 
REMARK    4  A    between atoms: C_22  and  C_23 
REMARK    5  A    between atoms: C_23  and  O_25 
ROOT
HETATM    1  C   UNL     1       0.981  -0.316   0.144  1.00  0.00     0.069 C 
HETATM    2  C   UNL     1       2.452  -0.066  -0.002  1.00  0.00     0.024 C 
HETATM    3  C   UNL     1       3.155   1.136  -0.023  1.00  0.00    -0.013 C 
HETATM    4  C   UNL     1       4.540   0.778  -0.106  1.00  0.00     0.003 C 
HETATM    5  C   UNL     1       4.625  -0.585  -0.386  1.00  0.00     0.053 C 
HETATM    6  C   UNL     1       5.848  -1.122  -0.831  1.00  0.00     0.034 C 
HETATM    7  C   UNL     1       7.019  -0.355  -0.723  1.00  0.00     0.039 C 
HETATM    8  C   UNL     1       6.971   0.957  -0.279  1.00  0.00     0.069 C 
HETATM    9  C   UNL     1       5.729   1.542  -0.034  1.00  0.00     0.051 C 
HETATM   10  N   UNL     1       3.368  -1.146  -0.119  1.00  0.00    -0.281 N 
HETATM   11  C   UNL     1       3.037  -2.538   0.038  1.00  0.00     0.263 C 
HETATM   12  O   UNL     1       1.841  -2.821   0.144  1.00  0.00    -0.267 OA
ENDROOT
BRANCH  11  13
HETATM   13  C   UNL     1       3.939  -3.729   0.086  1.00  0.00     0.033 C 
HETATM   14  C   UNL     1       5.239  -3.724   0.598  1.00  0.00     0.018 C 
HETATM   15  C   UNL     1       6.055  -4.857   0.469  1.00  0.00     0.025 C 
HETATM   16  C   UNL     1       5.538  -6.036  -0.065  1.00  0.00     0.034 C 
HETATM   17  C   UNL     1       4.202  -6.101  -0.443  1.00  0.00     0.025 C 
HETATM   18 CL   UNL     1       6.550  -7.412  -0.256  1.00  0.00    -0.084 Cl
HETATM   19  C   UNL     1       3.412  -4.951  -0.374  1.00  0.00     0.018 C 
ENDBRANCH  11  13
BRANCH   3  20
HETATM   20  C   UNL     1       2.756   2.591   0.067  1.00  0.00     0.151 C 
BRANCH  20  21
HETATM   21  C   UNL     1       1.378   3.095  -0.299  1.00  0.00     0.143 C 
HETATM   22  O   UNL     1       0.458   2.483  -0.804  1.00  0.00    -0.650 OA
BRANCH  21  23
HETATM   23  O   UNL     1       1.266   4.435  -0.056  1.00  0.00    -0.776 OA
HETATM   24  H   UNL     1       2.085   4.859   0.267  1.00  0.00     0.167 HD
ENDBRANCH  21  23
ENDBRANCH  20  21
ENDBRANCH   3  20
BRANCH   8  25
HETATM   25  O   UNL     1       8.041   1.789  -0.099  1.00  0.00    -0.356 OA
HETATM   26  C   UNL     1       9.323   1.174  -0.044  1.00  0.00     0.210 C 
ENDBRANCH   8  25
TORSDOF 5
