REMARK  2 active torsions:
REMARK  status: ('A' for Active; 'I' for Inactive)
REMARK    1  A    between atoms: C_2  and  C_3 
REMARK       I    between atoms: C_2  and  N_9 
REMARK    2  A    between atoms: N_9  and  N_10 
ROOT
HETATM    1  O   UNL     1       1.043   0.112   0.069  1.00  0.00    -0.266 OA
HETATM    2  C   UNL     1       2.271   0.128   0.066  1.00  0.00     0.265 C 
HETATM    3  N   UNL     1       2.970   1.187  -0.497  1.00  0.00    -0.290 N 
HETATM    4  H   UNL     1       2.361   1.878  -0.937  1.00  0.00     0.183 HD
ENDROOT
BRANCH   2   5
HETATM    5  C   UNL     1       3.010  -1.006   0.663  1.00  0.00     0.036 A 
HETATM    6  C   UNL     1       4.072  -0.799   1.542  1.00  0.00     0.036 A 
HETATM    7  C   UNL     1       4.694  -1.916   2.068  1.00  0.00     0.117 A 
HETATM    8  N   UNL     1       4.324  -3.183   1.784  1.00  0.00    -0.273 NA
HETATM    9  C   UNL     1       3.269  -3.349   0.956  1.00  0.00     0.117 A 
HETATM   10  C   UNL     1       2.580  -2.300   0.378  1.00  0.00     0.036 A 
ENDBRANCH   2   5
BRANCH   3  11
HETATM   11  N   UNL     1       4.298   1.108  -0.961  1.00  0.00    -0.247 NA
HETATM   12  H   UNL     1       4.505   0.157  -1.277  1.00  0.00     0.143 HD
HETATM   13  H   UNL     1       4.938   1.317  -0.193  1.00  0.00     0.143 HD
ENDBRANCH   3  11
TORSDOF 2
