REMARK  0 active torsions:
REMARK  status: ('A' for Active; 'I' for Inactive)
ROOT
HETATM    1  C   UNL     1       0.849   0.039   0.365  1.00  0.00     0.015 C 
HETATM    2  C   UNL     1       2.353   0.036   0.017  1.00  0.00    -0.037 C 
HETATM    3  C   UNL     1       2.666  -1.281  -0.741  1.00  0.00     0.043 C 
HETATM    4  C   UNL     1       3.735  -1.220  -1.796  1.00  0.00    -0.080 C 
HETATM    5  C   UNL     1       4.278  -0.078  -2.237  1.00  0.00     0.052 C 
HETATM    6  C   UNL     1       3.835   1.234  -1.735  1.00  0.00     0.150 C 
HETATM    7  O   UNL     1       4.381   2.249  -2.170  1.00  0.00    -0.293 OA
HETATM    8  C   UNL     1       2.656   1.312  -0.796  1.00  0.00     0.092 C 
HETATM    9  C   UNL     1       4.157  -2.533  -2.397  1.00  0.00     0.043 C 
HETATM   10  C   UNL     1       3.139   0.074   1.345  1.00  0.00     0.015 C 
ENDROOT
TORSDOF 0
