REMARK  3 active torsions:
REMARK  status: ('A' for Active; 'I' for Inactive)
REMARK       I    between atoms: C_2  and  N_3 
REMARK    1  A    between atoms: C_2  and  O_11 
REMARK    2  A    between atoms: N_3  and  C_4 
REMARK    3  A    between atoms: O_11  and  C_12 
ROOT
HETATM    1  O   UNL     1       1.403  -1.010  -0.486  1.00  0.00    -0.238 OA
HETATM    2  C   UNL     1       2.356  -0.267  -0.289  1.00  0.00     0.365 C 
HETATM    3  N   UNL     1       2.811   0.718  -1.128  1.00  0.00    -0.303 N 
HETATM    4  H   UNL     1       3.420   1.386  -0.689  1.00  0.00     0.171 HD
ENDROOT
BRANCH   3   5
HETATM    5  C   UNL     1       2.266   1.096  -2.368  1.00  0.00     0.038 A 
HETATM    6  C   UNL     1       1.453   0.269  -3.146  1.00  0.00     0.029 A 
HETATM    7  C   UNL     1       0.900   0.745  -4.340  1.00  0.00     0.004 A 
HETATM    8  C   UNL     1       1.150   2.052  -4.756  1.00  0.00     0.024 A 
HETATM    9  C   UNL     1       1.976   2.869  -3.991  1.00  0.00     0.036 A 
HETATM   10  C   UNL     1       2.550   2.392  -2.814  1.00  0.00     0.053 A 
HETATM   11 CL   UNL     1       2.270   4.493  -4.480  1.00  0.00    -0.084 Cl
ENDBRANCH   3   5
BRANCH   2  12
HETATM   12  O   UNL     1       2.978  -0.240   0.925  1.00  0.00    -0.299 OA
BRANCH  12  13
HETATM   13  C   UNL     1       4.416  -0.351   0.988  1.00  0.00     0.125 C 
HETATM   14  C   UNL     1       5.032   0.998   1.349  1.00  0.00     0.040 C 
HETATM   15  C   UNL     1       4.729  -1.363   2.086  1.00  0.00     0.040 C 
ENDBRANCH  12  13
ENDBRANCH   2  12
TORSDOF 3
