REMARK  1 active torsions:
REMARK  status: ('A' for Active; 'I' for Inactive)
REMARK    1  A    between atoms: C_2  and  C_4 
ROOT
HETATM    1  C   UNL     1      -0.805  -0.979  -0.461  1.00  0.00     0.119 C 
HETATM    2  C   UNL     1       0.359   0.715  -1.057  1.00  0.00     0.119 C 
HETATM    3  C   UNL     1      -0.399  -0.707   1.084  1.00  0.00     0.119 C 
HETATM    4  C   UNL     1       0.762   0.984   0.473  1.00  0.00     0.119 C 
HETATM    5  C   UNL     1      -1.182   0.454  -0.925  1.00  0.00     0.125 C 
HETATM    6  C   UNL     1      -0.627   0.825   1.185  1.00  0.00     0.125 C 
HETATM    7  C   UNL     1       0.586  -0.832  -1.170  1.00  0.00     0.149 C 
HETATM    8  C   UNL     1       1.144  -0.459   0.952  1.00  0.00     0.149 C 
HETATM    9  C   UNL     1      -1.734   1.243   0.242  1.00  0.00     0.163 C 
HETATM   10  C   UNL     1       1.677  -1.247  -0.217  1.00  0.00     0.182 C 
HETATM   11  O   UNL     1       2.646  -1.969  -0.344  1.00  0.00    -0.293 OA
HETATM   12 CL   UNL     1      -1.015  -1.801   2.326  1.00  0.00    -0.112 Cl
HETATM   13 CL   UNL     1       0.990   1.795  -2.305  1.00  0.00    -0.112 Cl
HETATM   14 CL   UNL     1       1.819   2.350   0.846  1.00  0.00    -0.112 Cl
HETATM   15 CL   UNL     1      -1.845  -2.357  -0.833  1.00  0.00    -0.112 Cl
HETATM   16 CL   UNL     1      -2.162   0.591  -2.432  1.00  0.00    -0.111 Cl
HETATM   17 CL   UNL     1      -0.775   1.520   2.842  1.00  0.00    -0.111 Cl
HETATM   18 CL   UNL     1       0.767  -1.531  -2.805  1.00  0.00    -0.106 Cl
HETATM   19 CL   UNL     1       2.143  -0.611   2.427  1.00  0.00    -0.106 Cl
HETATM   20 CL   UNL     1      -1.756   2.986  -0.059  1.00  0.00    -0.097 Cl
HETATM   21 CL   UNL     1      -3.327   0.675   0.761  1.00  0.00    -0.097 Cl
ENDROOT
TORSDOF 1
