REMARK  8 active torsions:
REMARK  status: ('A' for Active; 'I' for Inactive)
REMARK    1  A    between atoms: C_3  and  O_8 
REMARK    2  A    between atoms: C_5  and  O_8 
REMARK    3  A    between atoms: C_5  and  C_22 
REMARK    4  A    between atoms: C_9  and  C_13 
REMARK    5  A    between atoms: C_13  and  C_23 
REMARK    6  A    between atoms: C_16  and  C_23 
REMARK    7  A    between atoms: C_18  and  O_24 
REMARK    8  A    between atoms: C_22  and  C_27 
ROOT
HETATM    1  C   UNL     1      -5.391  -6.467  -5.114  1.00  0.00    -0.055 C 
HETATM    2  C   UNL     1      -4.997  -6.920  -3.688  1.00  0.00     0.052 C 
HETATM    3  C   UNL     1      -3.555  -6.402  -3.336  1.00  0.00     0.141 C 
HETATM    4  C   UNL     1      -6.681  -6.867  -5.628  1.00  0.00     0.004 C 
HETATM    5  C   UNL     1      -4.586  -5.768  -5.934  1.00  0.00    -0.015 C 
HETATM    6  C   UNL     1      -5.417  -8.435  -3.501  1.00  0.00     0.004 C 
HETATM    7  C   UNL     1      -7.404  -7.832  -5.056  1.00  0.00    -0.022 C 
HETATM    8  C   UNL     1      -2.632  -6.440  -4.566  1.00  0.00     0.041 C 
HETATM    9  C   UNL     1      -6.978  -8.551  -3.814  1.00  0.00     0.009 C 
HETATM   10  C   UNL     1      -3.150  -5.464  -5.630  1.00  0.00     0.007 C 
HETATM   11  C   UNL     1      -7.900  -8.044  -2.682  1.00  0.00     0.014 C 
HETATM   12  C   UNL     1      -2.311  -5.530  -6.906  1.00  0.00     0.014 C 
ENDROOT
BRANCH   6  13
HETATM   13  C   UNL     1      -5.260  -9.075  -2.102  1.00  0.00     0.009 C 
BRANCH  13  14
HETATM   14  C   UNL     1      -3.964  -9.735  -1.636  1.00  0.00     0.033 C 
BRANCH  14  15
HETATM   15  C   UNL     1      -3.780  -9.683  -0.092  1.00  0.00     0.134 C 
HETATM   16  O   UNL     1      -3.982  -8.335   0.404  1.00  0.00    -0.316 OA
HETATM   17  C   UNL     1      -5.175  -7.901   0.879  1.00  0.00     0.261 C 
HETATM   18  O   UNL     1      -5.535  -6.734   0.749  1.00  0.00    -0.265 OA
HETATM   19  C   UNL     1      -5.973  -8.887   1.665  1.00  0.00     0.142 C 
HETATM   20  C   UNL     1      -6.004 -10.235   0.987  1.00  0.00     0.130 C 
HETATM   21  C   UNL     1      -4.597 -10.714   0.685  1.00  0.00     0.065 C 
BRANCH  20  22
HETATM   22  O   UNL     1      -6.661 -11.181   1.828  1.00  0.00    -0.395 OA
HETATM   23  H   UNL     1      -6.190 -11.224   2.679  1.00  0.00     0.210 HD
ENDBRANCH  20  22
ENDBRANCH  14  15
ENDBRANCH  13  14
ENDBRANCH   6  13
BRANCH   3  24
HETATM   24  O   UNL     1      -2.938  -7.137  -2.266  1.00  0.00    -0.315 OA
BRANCH  24  25
HETATM   25  C   UNL     1      -2.051  -6.670  -1.352  1.00  0.00     0.263 C 
HETATM   26  O   UNL     1      -1.161  -7.414  -0.939  1.00  0.00    -0.265 OA
BRANCH  25  27
HETATM   27  C   UNL     1      -2.241  -5.271  -0.785  1.00  0.00     0.081 C 
HETATM   28  C   UNL     1      -2.419  -5.359   0.738  1.00  0.00     0.020 C 
BRANCH  27  29
HETATM   29  C   UNL     1      -1.017  -4.379  -1.049  1.00  0.00     0.010 C 
HETATM   30  C   UNL     1      -0.632  -4.248  -2.508  1.00  0.00     0.006 C 
ENDBRANCH  27  29
ENDBRANCH  25  27
ENDBRANCH  24  25
ENDBRANCH   3  24
TORSDOF 8
