REMARK  11 active torsions:
REMARK  status: ('A' for Active; 'I' for Inactive)
REMARK    1  A    between atoms: C_2  and  C_3 
REMARK    2  A    between atoms: C_2  and  O_17 
REMARK    3  A    between atoms: C_3  and  S_4 
REMARK    4  A    between atoms: C_3  and  C_11 
REMARK    5  A    between atoms: S_4  and  P_5 
REMARK    6  A    between atoms: P_5  and  O_7 
REMARK    7  A    between atoms: P_5  and  O_9 
REMARK    8  A    between atoms: C_11  and  C_12 
REMARK    9  A    between atoms: C_12  and  O_14 
REMARK   10  A    between atoms: O_14  and  C_15 
REMARK   11  A    between atoms: O_17  and  C_18 
ROOT
HETATM    1  C   UNL     1       3.176  -0.436   1.294  1.00  0.00     0.168 C 
ENDROOT
BRANCH   1   2
HETATM    2  C   UNL     1       2.290  -0.072   0.104  1.00  0.00     0.273 C 
HETATM    3  O   UNL     1       1.290   0.631   0.195  1.00  0.00    -0.264 OA
BRANCH   2   4
HETATM    4  O   UNL     1       2.608  -0.679  -1.075  1.00  0.00    -0.321 OA
BRANCH   4   5
HETATM    5  C   UNL     1       3.870  -0.316  -1.633  1.00  0.00     0.174 C 
HETATM    6  C   UNL     1       3.916  -0.551  -3.127  1.00  0.00     0.034 C 
ENDBRANCH   4   5
ENDBRANCH   2   4
ENDBRANCH   1   2
BRANCH   1   7
HETATM    7  S   UNL     1       4.149   1.009   1.843  1.00  0.00    -0.030 SA
BRANCH   7   8
HETATM    8  P   UNL     1       5.527   1.475   0.300  1.00  0.00     0.390 P 
HETATM    9  O   UNL     1       6.021   2.636   1.159  1.00  0.00    -0.246 OA
BRANCH   8  10
HETATM   10  O   UNL     1       6.436   0.124   0.594  1.00  0.00    -0.311 OA
HETATM   11  C   UNL     1       6.958  -0.151   1.888  1.00  0.00     0.213 C 
ENDBRANCH   8  10
BRANCH   8  12
HETATM   12  O   UNL     1       6.651   1.855  -0.959  1.00  0.00    -0.311 OA
HETATM   13  C   UNL     1       6.166   2.762  -1.930  1.00  0.00     0.213 C 
ENDBRANCH   8  12
ENDBRANCH   7   8
ENDBRANCH   1   7
BRANCH   1  14
HETATM   14  C   UNL     1       2.253  -0.885   2.440  1.00  0.00     0.137 C 
BRANCH  14  15
HETATM   15  C   UNL     1       3.011  -1.462   3.609  1.00  0.00     0.260 C 
HETATM   16  O   UNL     1       4.131  -1.953   3.538  1.00  0.00    -0.265 OA
BRANCH  15  17
HETATM   17  O   UNL     1       2.251  -1.392   4.737  1.00  0.00    -0.322 OA
BRANCH  17  18
HETATM   18  C   UNL     1       2.901  -1.833   5.938  1.00  0.00     0.174 C 
HETATM   19  C   UNL     1       1.846  -2.078   7.001  1.00  0.00     0.034 C 
ENDBRANCH  17  18
ENDBRANCH  15  17
ENDBRANCH  14  15
ENDBRANCH   1  14
TORSDOF 11
