REMARK  0 active torsions:
REMARK  status: ('A' for Active; 'I' for Inactive)
ROOT
HETATM    1  O   UNL     1       0.996   0.048   0.096  1.00  0.00    -0.267 OA
HETATM    2  C   UNL     1       2.214   0.057  -0.027  1.00  0.00     0.259 A 
HETATM    3  C   UNL     1       2.962   1.327  -0.103  1.00  0.00     0.081 A 
HETATM    4  C   UNL     1       4.290   1.342  -0.249  1.00  0.00     0.081 A 
HETATM    5  C   UNL     1       5.065   0.089  -0.342  1.00  0.00     0.259 A 
HETATM    6  O   UNL     1       6.280   0.108  -0.487  1.00  0.00    -0.267 OA
HETATM    7  N   UNL     1       4.345  -1.071  -0.254  1.00  0.00    -0.264 N 
HETATM    8  N   UNL     1       2.962  -1.087  -0.102  1.00  0.00    -0.264 N 
HETATM    9  H   UNL     1       4.849  -1.950  -0.317  1.00  0.00     0.190 HD
HETATM   10  H   UNL     1       2.476  -1.977  -0.057  1.00  0.00     0.190 HD
ENDROOT
TORSDOF 0
