REMARK  11 active torsions:
REMARK  status: ('A' for Active; 'I' for Inactive)
REMARK    1  A    between atoms: C_2  and  C_3 
REMARK    2  A    between atoms: C_2  and  O_17 
REMARK    3  A    between atoms: C_3  and  S_4 
REMARK    4  A    between atoms: C_3  and  C_11 
REMARK    5  A    between atoms: S_4  and  P_5 
REMARK    6  A    between atoms: P_5  and  O_7 
REMARK    7  A    between atoms: P_5  and  O_9 
REMARK    8  A    between atoms: C_11  and  C_12 
REMARK    9  A    between atoms: C_12  and  O_14 
REMARK   10  A    between atoms: O_14  and  C_15 
REMARK   11  A    between atoms: O_17  and  C_18 
ROOT
HETATM    1  C   UNL     1       2.898   1.208  -0.491  1.00  0.00     0.165 C 
ENDROOT
BRANCH   1   2
HETATM    2  C   UNL     1       2.002  -0.001  -0.197  1.00  0.00     0.273 C 
HETATM    3  O   UNL     1       0.975  -0.242  -0.821  1.00  0.00    -0.264 OA
BRANCH   2   4
HETATM    4  O   UNL     1       2.321  -0.725   0.919  1.00  0.00    -0.321 OA
BRANCH   4   5
HETATM    5  C   UNL     1       3.583  -1.385   0.898  1.00  0.00     0.174 C 
HETATM    6  C   UNL     1       3.679  -2.556   1.850  1.00  0.00     0.034 C 
ENDBRANCH   4   5
ENDBRANCH   2   4
ENDBRANCH   1   2
BRANCH   1   7
HETATM    7  S   UNL     1       4.045   0.916  -1.886  1.00  0.00    -0.059 SA
BRANCH   7   8
HETATM    8  P   UNL     1       5.423  -0.598  -1.333  1.00  0.00     0.248 P 
HETATM    9  S   UNL     1       5.467  -1.213  -3.256  1.00  0.00    -0.026 SA
BRANCH   8  10
HETATM   10  O   UNL     1       6.576   0.544  -1.016  1.00  0.00    -0.332 OA
HETATM   11  C   UNL     1       6.457   1.397   0.110  1.00  0.00     0.211 C 
ENDBRANCH   8  10
BRANCH   8  12
HETATM   12  O   UNL     1       6.547  -1.833  -0.883  1.00  0.00    -0.332 OA
HETATM   13  C   UNL     1       7.915  -1.822  -1.269  1.00  0.00     0.211 C 
ENDBRANCH   8  12
ENDBRANCH   7   8
ENDBRANCH   1   7
BRANCH   1  14
HETATM   14  C   UNL     1       1.985   2.396  -0.857  1.00  0.00     0.137 C 
BRANCH  14  15
HETATM   15  C   UNL     1       2.739   3.698  -0.956  1.00  0.00     0.260 C 
HETATM   16  O   UNL     1       3.789   3.933  -0.365  1.00  0.00    -0.265 OA
BRANCH  15  17
HETATM   17  O   UNL     1       2.072   4.568  -1.763  1.00  0.00    -0.322 OA
BRANCH  17  18
HETATM   18  C   UNL     1       2.753   5.800  -2.048  1.00  0.00     0.174 C 
HETATM   19  C   UNL     1       1.733   6.830  -2.498  1.00  0.00     0.034 C 
ENDBRANCH  17  18
ENDBRANCH  15  17
ENDBRANCH  14  15
ENDBRANCH   1  14
TORSDOF 11
