REMARK  1 active torsions:
REMARK  status: ('A' for Active; 'I' for Inactive)
REMARK    1  A    between atoms: S_1  and  C_2 
ROOT
HETATM    1  C   UNL     1       2.582   0.015  -0.071  1.00  0.00     0.133 A 
HETATM    2  N   UNL     1       3.411  -1.002  -0.071  1.00  0.00    -0.234 NA
HETATM    3  C   UNL     1       4.714  -0.531  -0.070  1.00  0.00     0.075 A 
HETATM    4  C   UNL     1       4.849   0.860  -0.070  1.00  0.00     0.036 A 
HETATM    5  C   UNL     1       6.107   1.485  -0.070  1.00  0.00     0.021 A 
HETATM    6  C   UNL     1       7.247   0.675  -0.070  1.00  0.00     0.002 A 
HETATM    7  C   UNL     1       7.137  -0.712  -0.070  1.00  0.00     0.002 A 
HETATM    8  C   UNL     1       5.879  -1.324  -0.070  1.00  0.00     0.033 A 
HETATM    9  S   UNL     1       3.280   1.573  -0.071  1.00  0.00    -0.061 SA
ENDROOT
BRANCH   1  10
HETATM   10  S   UNL     1       0.858  -0.256  -0.071  1.00  0.00    -0.116 SA
HETATM   11  H   UNL     1       0.934  -1.593  -0.071  1.00  0.00     0.109 HD
ENDBRANCH   1  10
TORSDOF 1
