REMARK  6 active torsions:
REMARK  status: ('A' for Active; 'I' for Inactive)
REMARK    1  A    between atoms: P_2  and  S_3 
REMARK    2  A    between atoms: P_2  and  O_13 
REMARK    3  A    between atoms: P_2  and  O_15 
REMARK    4  A    between atoms: S_3  and  C_4 
REMARK    5  A    between atoms: C_4  and  N_5 
REMARK    6  A    between atoms: C_9  and  O_11 
ROOT
HETATM    1  N   UNL     1       2.582   0.177  -4.492  1.00  0.00    -0.216 N 
HETATM    2  C   UNL     1       1.291   0.230  -4.963  1.00  0.00     0.311 A 
HETATM    3  O   UNL     1       0.271  -0.159  -4.415  1.00  0.00    -0.258 OA
HETATM    4  S   UNL     1       1.301   0.931  -6.560  1.00  0.00     0.020 SA
HETATM    5  C   UNL     1       3.036   1.055  -6.443  1.00  0.00     0.231 A 
HETATM    6  N   UNL     1       3.570   0.641  -5.335  1.00  0.00    -0.135 NA
ENDROOT
BRANCH   1   7
HETATM    7  C   UNL     1       2.904  -0.313  -3.164  1.00  0.00     0.239 C 
BRANCH   7   8
HETATM    8  S   UNL     1       2.883   1.028  -1.963  1.00  0.00    -0.052 SA
BRANCH   8   9
HETATM    9  P   UNL     1       2.829  -0.051   0.053  1.00  0.00     0.248 P 
HETATM   10  S   UNL     1       0.932  -0.051   0.053  1.00  0.00    -0.026 SA
BRANCH   9  11
HETATM   11  O   UNL     1       2.990   1.248   1.099  1.00  0.00    -0.332 OA
HETATM   12  C   UNL     1       2.230   1.494   2.267  1.00  0.00     0.211 C 
ENDBRANCH   9  11
BRANCH   9  13
HETATM   13  O   UNL     1       4.559  -0.051   0.053  1.00  0.00    -0.332 OA
HETATM   14  C   UNL     1       5.373   1.098  -0.131  1.00  0.00     0.211 C 
ENDBRANCH   9  13
ENDBRANCH   8   9
ENDBRANCH   7   8
ENDBRANCH   1   7
BRANCH   5  15
HETATM   15  O   UNL     1       3.839   1.535  -7.428  1.00  0.00    -0.333 OA
HETATM   16  C   UNL     1       3.258   1.992  -8.658  1.00  0.00     0.212 C 
ENDBRANCH   5  15
TORSDOF 6
