REMARK  5 active torsions:
REMARK  status: ('A' for Active; 'I' for Inactive)
REMARK    1  A    between atoms: C_2  and  C_3 
REMARK    2  A    between atoms: C_3  and  C_4 
REMARK    3  A    between atoms: C_3  and  C_12 
REMARK    4  A    between atoms: C_7  and  O_10 
REMARK    5  A    between atoms: C_15  and  O_18 
ROOT
HETATM    1  C   UNL     1       3.320   1.167   0.712  1.00  0.00     0.106 C 
ENDROOT
BRANCH   1   2
HETATM    2  C   UNL     1       2.466  -0.119   0.365  1.00  0.00     0.200 C 
HETATM    3 CL   UNL     1       0.681   0.222   0.322  1.00  0.00    -0.083 Cl
HETATM    4 CL   UNL     1       2.634  -1.386   1.663  1.00  0.00    -0.083 Cl
HETATM    5 CL   UNL     1       2.901  -0.890  -1.204  1.00  0.00    -0.083 Cl
ENDBRANCH   1   2
BRANCH   1   6
HETATM    6  C   UNL     1       4.874   1.089   0.621  1.00  0.00    -0.045 A 
HETATM    7  C   UNL     1       5.644   2.272   0.592  1.00  0.00     0.011 A 
HETATM    8  C   UNL     1       7.042   2.251   0.560  1.00  0.00     0.037 A 
HETATM    9  C   UNL     1       7.731   1.047   0.564  1.00  0.00     0.068 A 
HETATM   10  C   UNL     1       7.003  -0.136   0.628  1.00  0.00     0.037 A 
HETATM   11  C   UNL     1       5.597  -0.113   0.660  1.00  0.00     0.011 A 
BRANCH   9  12
HETATM   12  O   UNL     1       9.090   1.162   0.520  1.00  0.00    -0.356 OA
HETATM   13  C   UNL     1       9.819  -0.025   0.239  1.00  0.00     0.210 C 
ENDBRANCH   9  12
ENDBRANCH   1   6
BRANCH   1  14
HETATM   14  C   UNL     1       2.786   2.465   0.059  1.00  0.00    -0.045 A 
HETATM   15  C   UNL     1       2.557   2.585  -1.319  1.00  0.00     0.011 A 
HETATM   16  C   UNL     1       2.187   3.814  -1.873  1.00  0.00     0.037 A 
HETATM   17  C   UNL     1       2.095   4.954  -1.077  1.00  0.00     0.068 A 
HETATM   18  C   UNL     1       2.282   4.847   0.298  1.00  0.00     0.037 A 
HETATM   19  C   UNL     1       2.608   3.611   0.863  1.00  0.00     0.011 A 
BRANCH  17  20
HETATM   20  O   UNL     1       1.802   6.116  -1.736  1.00  0.00    -0.356 OA
HETATM   21  C   UNL     1       2.411   7.282  -1.186  1.00  0.00     0.210 C 
ENDBRANCH  17  20
ENDBRANCH   1  14
TORSDOF 5
