REMARK  1 active torsions:
REMARK  status: ('A' for Active; 'I' for Inactive)
REMARK    1  A    between atoms: S_2  and  O_5 
ROOT
HETATM    1  C   UNL     1       1.141   0.127   0.105  1.00  0.00     0.194 C 
HETATM    2  S   UNL     1       2.894  -0.103  -0.061  1.00  0.00     0.261 S 
HETATM    3  O   UNL     1       3.270  -1.325   0.616  1.00  0.00    -0.199 OA
HETATM    4  O   UNL     1       3.270   0.161  -1.434  1.00  0.00    -0.199 OA
ENDROOT
BRANCH   2   5
HETATM    5  O   UNL     1       3.355   1.162   0.855  1.00  0.00    -0.281 OA
HETATM    6  C   UNL     1       4.746   1.372   1.007  1.00  0.00     0.225 C 
ENDBRANCH   2   5
TORSDOF 1
