REMARK  5 active torsions:
REMARK  status: ('A' for Active; 'I' for Inactive)
REMARK    1  A    between atoms: P_2  and  O_3 
REMARK    2  A    between atoms: P_2  and  O_13 
REMARK    3  A    between atoms: P_2  and  O_15 
REMARK    4  A    between atoms: O_3  and  C_4 
REMARK    5  A    between atoms: C_7  and  N_10 
ROOT
HETATM    1  C   UNL     1       3.111   2.586  -0.509  1.00  0.00     0.079 A 
HETATM    2  C   UNL     1       4.329   3.076  -0.972  1.00  0.00     0.040 A 
HETATM    3  C   UNL     1       4.349   4.182  -1.829  1.00  0.00     0.039 A 
HETATM    4  C   UNL     1       3.142   4.789  -2.208  1.00  0.00     0.103 A 
HETATM    5  C   UNL     1       1.920   4.305  -1.729  1.00  0.00     0.039 A 
HETATM    6  C   UNL     1       1.914   3.213  -0.861  1.00  0.00     0.040 A 
ENDROOT
BRANCH   1   7
HETATM    7  O   UNL     1       3.101   1.596   0.436  1.00  0.00    -0.272 OA
BRANCH   7   8
HETATM    8  P   UNL     1       2.962  -0.033   0.070  1.00  0.00     0.333 P 
HETATM    9  S   UNL     1       1.064  -0.033   0.070  1.00  0.00    -0.007 SA
BRANCH   8  10
HETATM   10  O   UNL     1       3.053  -0.547   1.665  1.00  0.00    -0.319 OA
HETATM   11  C   UNL     1       2.576  -1.827   2.061  1.00  0.00     0.212 C 
ENDBRANCH   8  10
BRANCH   8  12
HETATM   12  O   UNL     1       4.691  -0.033   0.070  1.00  0.00    -0.319 OA
HETATM   13  C   UNL     1       5.424  -1.051   0.719  1.00  0.00     0.212 C 
ENDBRANCH   8  12
ENDBRANCH   7   8
ENDBRANCH   1   7
BRANCH   4  14
HETATM   14  N   UNL     1       3.157   5.960  -3.092  1.00  0.00    -0.116 N 
HETATM   15  O   UNL     1       4.259   6.432  -3.405  1.00  0.00    -0.532 OA
HETATM   16  O   UNL     1       2.066   6.407  -3.477  1.00  0.00    -0.532 OA
ENDBRANCH   4  14
TORSDOF 5
