REMARK  0 active torsions:
REMARK  status: ('A' for Active; 'I' for Inactive)
ROOT
HETATM    1  O   UNL     1       1.273  -0.171   0.723  1.00  0.00    -0.273 OA
HETATM    2  C   UNL     1       2.367  -0.109   0.187  1.00  0.00     0.219 C 
HETATM    3  N   UNL     1       3.134  -1.173  -0.270  1.00  0.00    -0.356 N 
HETATM    4  C   UNL     1       4.467  -0.757  -0.620  1.00  0.00     0.125 C 
HETATM    5  C   UNL     1       4.289   0.710  -0.953  1.00  0.00     0.029 C 
HETATM    6  C   UNL     1       3.163   1.156  -0.026  1.00  0.00     0.104 C 
HETATM    7  C   UNL     1       2.814  -2.554   0.003  1.00  0.00     0.152 C 
ENDROOT
TORSDOF 0
