REMARK  4 active torsions:
REMARK  status: ('A' for Active; 'I' for Inactive)
REMARK    1  A    between atoms: C_3  and  N_17 
REMARK    2  A    between atoms: C_6  and  C_8 
REMARK    3  A    between atoms: C_8  and  C_9 
REMARK    4  A    between atoms: C_12  and  N_15 
ROOT
HETATM    1  C   UNL     1       5.078  -2.622  -0.271  1.00  0.00     0.077 C 
ENDROOT
BRANCH   1   2
HETATM    2  C   UNL     1       4.447  -1.247  -0.162  1.00  0.00    -0.053 C 
HETATM    3  C   UNL     1       5.189  -0.132  -0.564  1.00  0.00     0.009 C 
HETATM    4  C   UNL     1       4.647   1.154  -0.492  1.00  0.00     0.024 C 
HETATM    5  C   UNL     1       3.328   1.360  -0.073  1.00  0.00     0.011 C 
HETATM    6  C   UNL     1       2.613   0.270   0.445  1.00  0.00    -0.041 C 
HETATM    7  C   UNL     1       1.203   0.391   0.958  1.00  0.00     0.050 C 
HETATM    8  C   UNL     1       3.187  -1.018   0.408  1.00  0.00     0.016 C 
BRANCH   5   9
HETATM    9  N   UNL     1       2.852   2.678   0.022  1.00  0.00    -0.302 NA
HETATM   10  H   UNL     1       1.842   2.748  -0.041  1.00  0.00     0.124 HD
HETATM   11  H   UNL     1       3.311   3.319  -0.616  1.00  0.00     0.124 HD
ENDBRANCH   5   9
ENDBRANCH   1   2
BRANCH   1  12
HETATM   12  C   UNL     1       4.206  -3.847  -0.481  1.00  0.00    -0.053 A 
HETATM   13  C   UNL     1       4.722  -5.102  -0.118  1.00  0.00     0.016 A 
HETATM   14  C   UNL     1       3.979  -6.288  -0.274  1.00  0.00    -0.041 A 
HETATM   15  C   UNL     1       2.681  -6.224  -0.807  1.00  0.00     0.011 A 
HETATM   16  C   UNL     1       4.596  -7.594   0.143  1.00  0.00     0.050 C 
HETATM   17  C   UNL     1       2.168  -4.975  -1.170  1.00  0.00     0.024 A 
HETATM   18  C   UNL     1       2.938  -3.813  -1.069  1.00  0.00     0.009 A 
BRANCH  15  19
HETATM   19  N   UNL     1       1.817  -7.328  -0.773  1.00  0.00    -0.302 NA
HETATM   20  H   UNL     1       2.281  -8.227  -0.823  1.00  0.00     0.124 HD
HETATM   21  H   UNL     1       1.036  -7.260  -1.418  1.00  0.00     0.124 HD
ENDBRANCH  15  19
ENDBRANCH   1  12
TORSDOF 4
