REMARK  4 active torsions:
REMARK  status: ('A' for Active; 'I' for Inactive)
REMARK    1  A    between atoms: C_1  and  C_2 
REMARK    2  A    between atoms: C_1  and  C_11 
REMARK    3  A    between atoms: C_7  and  N_8 
REMARK    4  A    between atoms: C_16  and  N_17 
ROOT
HETATM    1  C   UNL     1       1.231   0.271   0.031  1.00  0.00     0.077 C 
ENDROOT
BRANCH   1   2
HETATM    2  C   UNL     1       0.600   1.646  -0.105  1.00  0.00    -0.054 A 
HETATM    3  C   UNL     1      -0.732   1.811   0.293  1.00  0.00     0.010 A 
HETATM    4  C   UNL     1      -1.351   3.068   0.246  1.00  0.00     0.030 A 
HETATM    5  C   UNL     1      -0.671   4.213  -0.197  1.00  0.00     0.029 A 
HETATM    6  C   UNL     1       0.642   4.023  -0.647  1.00  0.00     0.030 A 
HETATM    7  C   UNL     1       1.258   2.762  -0.631  1.00  0.00     0.010 A 
BRANCH   5   8
HETATM    8  N   UNL     1      -1.283   5.471  -0.114  1.00  0.00    -0.390 N 
HETATM    9  C   UNL     1      -2.572   5.597  -0.795  1.00  0.00     0.149 C 
HETATM   10  C   UNL     1      -0.436   6.659  -0.188  1.00  0.00     0.149 C 
ENDBRANCH   5   8
ENDBRANCH   1   2
BRANCH   1  11
HETATM   11  C   UNL     1       2.740   0.154  -0.028  1.00  0.00    -0.054 A 
HETATM   12  C   UNL     1       3.583   0.996   0.705  1.00  0.00     0.010 A 
HETATM   13  C   UNL     1       4.974   0.887   0.590  1.00  0.00     0.030 A 
HETATM   14  C   UNL     1       5.579  -0.091  -0.214  1.00  0.00     0.029 A 
HETATM   15  C   UNL     1       4.725  -0.993  -0.861  1.00  0.00     0.030 A 
HETATM   16  C   UNL     1       3.331  -0.868  -0.780  1.00  0.00     0.010 A 
BRANCH  14  17
HETATM   17  N   UNL     1       6.971  -0.142  -0.318  1.00  0.00    -0.390 N 
HETATM   18  C   UNL     1       7.621   1.100  -0.744  1.00  0.00     0.149 C 
HETATM   19  C   UNL     1       7.612  -1.369  -0.775  1.00  0.00     0.149 C 
ENDBRANCH  14  17
ENDBRANCH   1  11
TORSDOF 4
