REMARK  7 active torsions:
REMARK  status: ('A' for Active; 'I' for Inactive)
REMARK    1  A    between atoms: C_1  and  C_2 
REMARK    2  A    between atoms: C_1  and  C_4 
REMARK    3  A    between atoms: C_1  and  N_10 
REMARK    4  A    between atoms: C_2  and  O_11 
REMARK    5  A    between atoms: C_3  and  O_13 
REMARK    6  A    between atoms: C_4  and  C_7 
REMARK    7  A    between atoms: C_5  and  O_14 
ROOT
HETATM    1  C   UNL     1       2.662   3.055   2.845  1.00  0.00     0.099 A 
HETATM    2  C   UNL     1       1.871   4.167   2.573  1.00  0.00     0.098 A 
HETATM    3  C   UNL     1       2.228   1.779   2.500  1.00  0.00     0.046 A 
HETATM    4  C   UNL     1       0.995   1.619   1.846  1.00  0.00    -0.052 A 
HETATM    5  C   UNL     1       0.635   4.025   1.964  1.00  0.00     0.040 A 
HETATM    6  C   UNL     1       0.198   2.751   1.599  1.00  0.00     0.010 A 
ENDROOT
BRANCH   4   7
HETATM    7  C   UNL     1       0.554   0.254   1.357  1.00  0.00     0.091 C 
BRANCH   7   8
HETATM    8  C   UNL     1       1.027  -0.124  -0.075  1.00  0.00     0.239 C 
HETATM    9  C   UNL     1       2.558  -0.186  -0.181  1.00  0.00     0.061 C 
BRANCH   8  10
HETATM   10  C   UNL     1       0.489  -1.531  -0.416  1.00  0.00     0.179 C 
HETATM   11  O   UNL     1       0.062  -2.369   0.362  1.00  0.00    -0.648 OA
BRANCH  10  12
HETATM   12  O   UNL     1       0.544  -1.806  -1.742  1.00  0.00    -0.774 OA
HETATM   13  H   UNL     1       0.212  -2.726  -1.811  1.00  0.00     0.167 HD
ENDBRANCH  10  12
ENDBRANCH   8  10
BRANCH   8  14
HETATM   14  N   UNL     1       0.525   0.840  -1.092  1.00  0.00     0.098 N 
HETATM   15  H   UNL     1       0.758   0.467  -2.016  1.00  0.00     0.314 HD
HETATM   16  H   UNL     1      -0.493   0.865  -1.057  1.00  0.00     0.314 HD
ENDBRANCH   8  14
ENDBRANCH   7   8
ENDBRANCH   4   7
BRANCH   1  17
HETATM   17  O   UNL     1       3.877   3.268   3.437  1.00  0.00    -0.358 OA
HETATM   18  H   UNL     1       4.322   2.408   3.527  1.00  0.00     0.217 HD
ENDBRANCH   1  17
BRANCH   2  19
HETATM   19  O   UNL     1       2.320   5.417   2.890  1.00  0.00    -0.358 OA
HETATM   20  H   UNL     1       3.212   5.265   3.260  1.00  0.00     0.217 HD
ENDBRANCH   2  19
TORSDOF 7
