REMARK  0 active torsions:
REMARK  status: ('A' for Active; 'I' for Inactive)
ROOT
HETATM    1  C   UNL     1       0.991   0.024  -0.032  1.00  0.00     0.049 C 
HETATM    2  C   UNL     1       2.496  -0.057  -0.009  1.00  0.00    -0.051 A 
HETATM    3  C   UNL     1       3.227  -1.279  -0.025  1.00  0.00    -0.020 A 
HETATM    4  C   UNL     1       4.646  -1.221  -0.002  1.00  0.00    -0.025 A 
HETATM    5  C   UNL     1       5.298   0.020   0.018  1.00  0.00     0.012 A 
HETATM    6  C   UNL     1       4.576   1.208   0.016  1.00  0.00     0.001 A 
HETATM    7  C   UNL     1       3.187   1.169   0.001  1.00  0.00     0.007 A 
HETATM    8  C   UNL     1       5.403  -2.404  -0.003  1.00  0.00     0.012 A 
HETATM    9  C   UNL     1       4.787  -3.653  -0.031  1.00  0.00     0.001 A 
HETATM   10  C   UNL     1       3.402  -3.733  -0.062  1.00  0.00     0.001 A 
HETATM   11  C   UNL     1       2.634  -2.564  -0.061  1.00  0.00     0.013 A 
ENDROOT
TORSDOF 0
