REMARK  0 active torsions:
REMARK  status: ('A' for Active; 'I' for Inactive)
ROOT
HETATM    1  C   UNL     1       0.990   0.123  -0.052  1.00  0.00     0.048 C 
HETATM    2  C   UNL     1       2.487   0.110   0.033  1.00  0.00    -0.061 A 
HETATM    3  C   UNL     1       3.198  -1.094   0.076  1.00  0.00     0.020 A 
HETATM    4  C   UNL     1       4.605  -1.097   0.137  1.00  0.00    -0.007 A 
HETATM    5  C   UNL     1       5.338  -2.290   0.186  1.00  0.00     0.015 A 
HETATM    6  C   UNL     1       6.726  -2.247   0.243  1.00  0.00     0.020 A 
HETATM    7  C   UNL     1       7.335  -1.007   0.251  1.00  0.00     0.117 A 
HETATM    8  N   UNL     1       6.663   0.165   0.205  1.00  0.00    -0.260 NA
HETATM    9  C   UNL     1       5.320   0.119   0.149  1.00  0.00     0.066 A 
HETATM   10  C   UNL     1       4.597   1.302   0.099  1.00  0.00     0.033 A 
HETATM   11  C   UNL     1       3.199   1.310   0.038  1.00  0.00     0.009 A 
ENDROOT
TORSDOF 0
