REMARK  4 active torsions:
REMARK  status: ('A' for Active; 'I' for Inactive)
REMARK    1  A    between atoms: C_2  and  C_3 
REMARK    2  A    between atoms: C_2  and  C_12 
REMARK    3  A    between atoms: C_6  and  N_9 
REMARK    4  A    between atoms: C_15  and  N_18 
ROOT
HETATM    1  O   UNL     1       1.042   0.060   0.151  1.00  0.00    -0.287 OA
HETATM    2  C   UNL     1       2.260   0.079  -0.028  1.00  0.00     0.192 C 
ENDROOT
BRANCH   2   3
HETATM    3  C   UNL     1       2.895   1.323  -0.522  1.00  0.00     0.015 A 
HETATM    4  C   UNL     1       2.401   2.551  -0.088  1.00  0.00     0.018 A 
HETATM    5  C   UNL     1       2.990   3.744  -0.531  1.00  0.00     0.030 A 
HETATM    6  C   UNL     1       4.071   3.763  -1.433  1.00  0.00     0.029 A 
HETATM    7  C   UNL     1       4.526   2.502  -1.867  1.00  0.00     0.030 A 
HETATM    8  C   UNL     1       3.948   1.300  -1.433  1.00  0.00     0.018 A 
BRANCH   6   9
HETATM    9  N   UNL     1       4.689   4.956  -1.827  1.00  0.00    -0.390 N 
HETATM   10  C   UNL     1       3.937   6.208  -1.731  1.00  0.00     0.149 C 
HETATM   11  C   UNL     1       5.695   4.923  -2.889  1.00  0.00     0.149 C 
ENDBRANCH   6   9
ENDBRANCH   2   3
BRANCH   2  12
HETATM   12  C   UNL     1       3.057  -1.140   0.265  1.00  0.00     0.015 A 
HETATM   13  C   UNL     1       4.356  -1.075   0.763  1.00  0.00     0.018 A 
HETATM   14  C   UNL     1       5.055  -2.256   1.066  1.00  0.00     0.030 A 
HETATM   15  C   UNL     1       4.493  -3.534   0.892  1.00  0.00     0.029 A 
HETATM   16  C   UNL     1       3.173  -3.558   0.405  1.00  0.00     0.030 A 
HETATM   17  C   UNL     1       2.462  -2.388   0.098  1.00  0.00     0.018 A 
BRANCH  15  18
HETATM   18  N   UNL     1       5.178  -4.700   1.254  1.00  0.00    -0.390 N 
HETATM   19  C   UNL     1       6.641  -4.699   1.257  1.00  0.00     0.149 C 
HETATM   20  C   UNL     1       4.572  -6.001   0.966  1.00  0.00     0.149 C 
ENDBRANCH  15  18
ENDBRANCH   2  12
TORSDOF 4
