REMARK  0 active torsions:
REMARK  status: ('A' for Active; 'I' for Inactive)
ROOT
HETATM    1  C   UNL     1       0.941   0.076  -0.029  1.00  0.00     0.068 C 
HETATM    2  C   UNL     1       2.437   0.007  -0.027  1.00  0.00     0.013 A 
HETATM    3  C   UNL     1       3.117  -1.148  -0.026  1.00  0.00     0.099 A 
HETATM    4  C   UNL     1       4.594  -1.121  -0.024  1.00  0.00     0.249 A 
HETATM    5  O   UNL     1       5.245  -2.159  -0.023  1.00  0.00    -0.268 OA
HETATM    6  N   UNL     1       5.170   0.120  -0.024  1.00  0.00    -0.300 N 
HETATM    7  C   UNL     1       4.479   1.296  -0.025  1.00  0.00     0.178 A 
HETATM    8  S   UNL     1       5.250   2.768  -0.025  1.00  0.00    -0.040 SA
HETATM    9  N   UNL     1       3.116   1.202  -0.027  1.00  0.00    -0.337 N 
HETATM   10  H   UNL     1       6.179   0.151  -0.023  1.00  0.00     0.171 HD
HETATM   11  H   UNL     1       2.598   2.076  -0.028  1.00  0.00     0.168 HD
ENDROOT
TORSDOF 0
