REMARK  7 active torsions:
REMARK  status: ('A' for Active; 'I' for Inactive)
REMARK    1  A    between atoms: O_1  and  S_2 
REMARK    2  A    between atoms: O_1  and  C_6 
REMARK    3  A    between atoms: C_6  and  C_7 
REMARK    4  A    between atoms: C_7  and  C_8 
REMARK    5  A    between atoms: C_8  and  C_9 
REMARK    6  A    between atoms: C_9  and  O_10 
REMARK    7  A    between atoms: O_10  and  S_11 
ROOT
HETATM    1  C   UNL     1       2.881  -1.128   0.671  1.00  0.00     0.030 C 
ENDROOT
BRANCH   1   2
HETATM    2  C   UNL     1       2.523   0.206   0.029  1.00  0.00     0.190 C 
BRANCH   2   3
HETATM    3  O   UNL     1       1.108   0.328  -0.027  1.00  0.00    -0.276 OA
BRANCH   3   4
HETATM    4  S   UNL     1       0.521   1.693  -0.698  1.00  0.00     0.261 S 
HETATM    5  O   UNL     1       0.850   2.806   0.167  1.00  0.00    -0.199 OA
HETATM    6  O   UNL     1       0.851   1.690  -2.107  1.00  0.00    -0.199 OA
HETATM    7  C   UNL     1      -1.206   1.320  -0.516  1.00  0.00     0.194 C 
ENDBRANCH   3   4
ENDBRANCH   2   3
ENDBRANCH   1   2
BRANCH   1   8
HETATM    8  C   UNL     1       4.393  -1.331   0.712  1.00  0.00     0.030 C 
BRANCH   8   9
HETATM    9  C   UNL     1       4.773  -2.647   1.379  1.00  0.00     0.190 C 
BRANCH   9  10
HETATM   10  O   UNL     1       6.172  -2.833   1.224  1.00  0.00    -0.276 OA
BRANCH  10  11
HETATM   11  S   UNL     1       6.927  -4.001   2.075  1.00  0.00     0.261 S 
HETATM   12  O   UNL     1       6.286  -4.145   3.365  1.00  0.00    -0.199 OA
HETATM   13  C   UNL     1       6.475  -5.389   1.060  1.00  0.00     0.194 C 
HETATM   14  O   UNL     1       8.355  -3.797   1.952  1.00  0.00    -0.199 OA
ENDBRANCH  10  11
ENDBRANCH   9  10
ENDBRANCH   8   9
ENDBRANCH   1   8
TORSDOF 7
