REMARK  0 active torsions:
REMARK  status: ('A' for Active; 'I' for Inactive)
ROOT
HETATM    1  C   UNL     1       1.206   1.407  -0.007  1.00  0.00     0.012 A 
HETATM    2  C   UNL     1      -0.008   0.701  -0.012  1.00  0.00    -0.026 A 
HETATM    3  C   UNL     1       0.014  -0.713  -0.004  1.00  0.00    -0.026 A 
HETATM    4  C   UNL     1       1.250  -1.380   0.007  1.00  0.00     0.012 A 
HETATM    5  C   UNL     1       2.448  -0.663   0.011  1.00  0.00     0.001 A 
HETATM    6  C   UNL     1       2.426   0.728   0.004  1.00  0.00     0.001 A 
HETATM    7  C   UNL     1      -1.200  -1.418  -0.009  1.00  0.00     0.012 A 
HETATM    8  C   UNL     1      -2.420  -0.740  -0.021  1.00  0.00     0.001 A 
HETATM    9  C   UNL     1      -2.442   0.652  -0.029  1.00  0.00     0.001 A 
HETATM   10  C   UNL     1      -1.244   1.369  -0.024  1.00  0.00     0.012 A 
ENDROOT
TORSDOF 0
