REMARK  2 active torsions:
REMARK  status: ('A' for Active; 'I' for Inactive)
REMARK    1  A    between atoms: N_1  and  C_2 
REMARK    2  A    between atoms: C_8  and  N_12 
ROOT
HETATM    1  C   UNL     1       2.381  -0.042   0.056  1.00  0.00     0.017 A 
HETATM    2  C   UNL     1       3.136  -1.251   0.055  1.00  0.00    -0.003 A 
HETATM    3  C   UNL     1       4.558  -1.194   0.130  1.00  0.00    -0.003 A 
HETATM    4  C   UNL     1       5.172   0.078   0.109  1.00  0.00     0.014 A 
HETATM    5  C   UNL     1       4.429   1.253   0.021  1.00  0.00     0.003 A 
HETATM    6  C   UNL     1       3.043   1.189  -0.020  1.00  0.00     0.024 A 
HETATM    7  C   UNL     1       5.308  -2.403   0.211  1.00  0.00     0.017 A 
HETATM    8  C   UNL     1       4.657  -3.634   0.066  1.00  0.00     0.024 A 
HETATM    9  C   UNL     1       3.275  -3.698  -0.039  1.00  0.00     0.003 A 
HETATM   10  C   UNL     1       2.527  -2.524  -0.029  1.00  0.00     0.014 A 
ENDROOT
BRANCH   1  11
HETATM   11  N   UNL     1       0.973  -0.034  -0.082  1.00  0.00    -0.302 NA
HETATM   12  H   UNL     1       0.527  -0.821   0.375  1.00  0.00     0.124 HD
HETATM   13  H   UNL     1       0.552   0.844   0.205  1.00  0.00     0.124 HD
ENDBRANCH   1  11
BRANCH   7  14
HETATM   14  N   UNL     1       6.723  -2.411   0.221  1.00  0.00    -0.302 NA
HETATM   15  H   UNL     1       7.119  -1.624   0.722  1.00  0.00     0.124 HD
HETATM   16  H   UNL     1       7.112  -3.289   0.551  1.00  0.00     0.124 HD
ENDBRANCH   7  14
TORSDOF 2
