REMARK  1 active torsions:
REMARK  status: ('A' for Active; 'I' for Inactive)
REMARK    1  A    between atoms: C_5  and  N_7 
ROOT
HETATM    1  C   UNL     1      -0.004   0.701  -0.045  1.00  0.00    -0.024 A 
HETATM    2  C   UNL     1       0.017  -0.710  -0.007  1.00  0.00    -0.026 A 
HETATM    3  C   UNL     1       1.251  -1.374  -0.026  1.00  0.00     0.014 A 
HETATM    4  C   UNL     1       2.448  -0.653  -0.066  1.00  0.00     0.024 A 
HETATM    5  C   UNL     1       2.442   0.741  -0.042  1.00  0.00     0.006 A 
HETATM    6  C   UNL     1       1.212   1.406  -0.085  1.00  0.00     0.035 A 
HETATM    7  C   UNL     1      -1.197  -1.417   0.032  1.00  0.00     0.012 A 
HETATM    8  C   UNL     1      -2.417  -0.739   0.032  1.00  0.00     0.001 A 
HETATM    9  C   UNL     1      -2.439   0.652  -0.010  1.00  0.00     0.001 A 
HETATM   10  C   UNL     1      -1.241   1.368  -0.050  1.00  0.00     0.012 A 
ENDROOT
BRANCH   5  11
HETATM   11  N   UNL     1       3.636   1.454  -0.207  1.00  0.00    -0.303 NA
HETATM   12  H   UNL     1       4.454   0.964   0.142  1.00  0.00     0.124 HD
HETATM   13  H   UNL     1       3.589   2.410   0.130  1.00  0.00     0.124 HD
ENDBRANCH   5  11
TORSDOF 1
