REMARK  9 active torsions:
REMARK  status: ('A' for Active; 'I' for Inactive)
REMARK    1  A    between atoms: O_1  and  C_2 
REMARK    2  A    between atoms: C_2  and  C_4 
REMARK    3  A    between atoms: C_4  and  N_5 
REMARK    4  A    between atoms: N_5  and  C_6 
REMARK    5  A    between atoms: N_5  and  C_10 
REMARK    6  A    between atoms: C_6  and  C_7 
REMARK    7  A    between atoms: C_7  and  O_9 
REMARK    8  A    between atoms: C_10  and  C_11 
REMARK    9  A    between atoms: C_11  and  O_13 
ROOT
HETATM    1  N   UNL     1       4.517   0.564  -0.744  1.00  0.00     0.118 N 
ENDROOT
BRANCH   1   2
HETATM    2  C   UNL     1       3.084   0.899  -0.955  1.00  0.00     0.382 C 
BRANCH   2   3
HETATM    3  C   UNL     1       2.185   0.669   0.262  1.00  0.00     0.169 C 
HETATM    4  O   UNL     1       2.414   1.073   1.391  1.00  0.00    -0.649 OA
BRANCH   3   5
HETATM    5  O   UNL     1       0.994   0.099  -0.061  1.00  0.00    -0.775 OA
HETATM    6  H   UNL     1       0.870  -0.118  -1.002  1.00  0.00     0.167 HD
ENDBRANCH   3   5
ENDBRANCH   2   3
ENDBRANCH   1   2
BRANCH   1   7
HETATM    7  C   UNL     1       4.792  -0.878  -0.988  1.00  0.00     0.382 C 
BRANCH   7   8
HETATM    8  C   UNL     1       4.419  -1.802   0.176  1.00  0.00     0.169 C 
HETATM    9  O   UNL     1       4.043  -1.470   1.285  1.00  0.00    -0.649 OA
BRANCH   8  10
HETATM   10  O   UNL     1       4.535  -3.115  -0.163  1.00  0.00    -0.775 OA
HETATM   11  H   UNL     1       4.917  -3.275  -1.044  1.00  0.00     0.167 HD
ENDBRANCH   8  10
ENDBRANCH   7   8
ENDBRANCH   1   7
BRANCH   1  12
HETATM   12  C   UNL     1       5.345   1.426  -1.625  1.00  0.00     0.382 C 
BRANCH  12  13
HETATM   13  C   UNL     1       6.856   1.356  -1.361  1.00  0.00     0.169 C 
HETATM   14  O   UNL     1       7.430   0.601  -0.593  1.00  0.00    -0.649 OA
BRANCH  13  15
HETATM   15  O   UNL     1       7.549   2.215  -2.154  1.00  0.00    -0.775 OA
HETATM   16  H   UNL     1       6.998   2.787  -2.719  1.00  0.00     0.167 HD
ENDBRANCH  13  15
ENDBRANCH  12  13
ENDBRANCH   1  12
TORSDOF 9
