REMARK  3 active torsions:
REMARK  status: ('A' for Active; 'I' for Inactive)
REMARK    1  A    between atoms: N_2  and  C_3 
REMARK    2  A    between atoms: C_6  and  C_8 
REMARK    3  A    between atoms: N_9  and  N_10 
REMARK       I    between atoms: N_10  and  C_11 
REMARK       I    between atoms: C_11  and  N_13 
ROOT
HETATM    1  C   UNL     1       5.968   3.131  -1.228  1.00  0.00     0.176 C 
HETATM    2  N   UNL     1       6.906   2.265  -1.434  1.00  0.00    -0.181 NA
ENDROOT
BRANCH   1   3
HETATM    3  C   UNL     1       4.645   2.736  -0.824  1.00  0.00     0.097 A 
HETATM    4  C   UNL     1       3.519   3.492  -0.541  1.00  0.00     0.043 A 
HETATM    5  C   UNL     1       2.486   2.583  -0.196  1.00  0.00     0.065 A 
HETATM    6  C   UNL     1       3.053   1.334  -0.292  1.00  0.00     0.215 A 
HETATM    7  O   UNL     1       4.355   1.405  -0.668  1.00  0.00    -0.287 OA
BRANCH   6   8
HETATM    8  N   UNL     1       2.513   0.029  -0.070  1.00  0.00    -0.090 N 
HETATM    9  O   UNL     1       1.322  -0.015   0.270  1.00  0.00    -0.530 OA
HETATM   10  O   UNL     1       3.257  -0.946  -0.227  1.00  0.00    -0.530 OA
ENDBRANCH   6   8
ENDBRANCH   1   3
BRANCH   2  11
HETATM   11  N   UNL     1       8.114   2.775  -1.819  1.00  0.00    -0.234 N 
HETATM   12  C   UNL     1       9.125   1.928  -2.218  1.00  0.00     0.312 C 
HETATM   13  O   UNL     1       9.095   0.707  -2.285  1.00  0.00    -0.253 OA
HETATM   14  N   UNL     1      10.261   2.607  -2.561  1.00  0.00    -0.252 NA
HETATM   15  H   UNL     1      10.524   3.367  -1.950  1.00  0.00     0.128 HD
HETATM   16  H   UNL     1      11.022   1.969  -2.762  1.00  0.00     0.128 HD
HETATM   17  H   UNL     1       8.188   3.745  -2.092  1.00  0.00     0.193 HD
ENDBRANCH   2  11
TORSDOF 3
