REMARK  3 active torsions:
REMARK  status: ('A' for Active; 'I' for Inactive)
REMARK    1  A    between atoms: N_2  and  C_3 
REMARK    2  A    between atoms: C_5  and  N_11 
REMARK    3  A    between atoms: C_6  and  O_9 
ROOT
HETATM    1  C   UNL     1       2.978   1.216  -0.090  1.00  0.00     0.104 A 
HETATM    2  C   UNL     1       2.292   2.422   0.093  1.00  0.00     0.062 A 
HETATM    3  C   UNL     1       2.954   3.635  -0.121  1.00  0.00     0.042 A 
HETATM    4  C   UNL     1       4.330   3.634  -0.447  1.00  0.00     0.089 A 
HETATM    5  C   UNL     1       5.007   2.422  -0.618  1.00  0.00     0.041 A 
HETATM    6  C   UNL     1       4.332   1.210  -0.446  1.00  0.00     0.039 A 
ENDROOT
BRANCH   1   7
HETATM    7  N   UNL     1       2.272  -0.055   0.103  1.00  0.00    -0.116 N 
HETATM    8  O   UNL     1       1.042  -0.017   0.249  1.00  0.00    -0.532 OA
HETATM    9  O   UNL     1       2.947  -1.095   0.099  1.00  0.00    -0.532 OA
ENDBRANCH   1   7
BRANCH   3  10
HETATM   10  N   UNL     1       2.300   4.841   0.197  1.00  0.00    -0.300 NA
HETATM   11  H   UNL     1       1.307   4.848  -0.006  1.00  0.00     0.124 HD
HETATM   12  H   UNL     1       2.796   5.639  -0.198  1.00  0.00     0.124 HD
ENDBRANCH   3  10
BRANCH   4  13
HETATM   13  O   UNL     1       4.892   4.880  -0.595  1.00  0.00    -0.354 OA
HETATM   14  C   UNL     1       6.251   4.934  -1.008  1.00  0.00     0.210 C 
ENDBRANCH   4  13
TORSDOF 3
