REMARK  2 active torsions:
REMARK  status: ('A' for Active; 'I' for Inactive)
REMARK    1  A    between atoms: N_2  and  C_3 
REMARK    2  A    between atoms: C_5  and  N_10 
ROOT
HETATM    1  C   UNL     1       2.866   1.078   0.891  1.00  0.00     0.104 A 
HETATM    2  C   UNL     1       2.412   2.401   0.828  1.00  0.00     0.059 A 
HETATM    3  C   UNL     1       3.120   3.429   1.468  1.00  0.00     0.014 A 
HETATM    4  C   UNL     1       4.234   3.094   2.263  1.00  0.00    -0.041 A 
HETATM    5  C   UNL     1       4.673   1.756   2.320  1.00  0.00     0.011 A 
HETATM    6  C   UNL     1       4.004   0.748   1.627  1.00  0.00     0.037 A 
HETATM    7  C   UNL     1       4.986   4.092   3.104  1.00  0.00     0.050 C 
ENDROOT
BRANCH   1   8
HETATM    8  N   UNL     1       2.132   0.027   0.183  1.00  0.00    -0.116 N 
HETATM    9  O   UNL     1       0.976   0.276  -0.183  1.00  0.00    -0.532 OA
HETATM   10  O   UNL     1       2.717  -1.049  -0.013  1.00  0.00    -0.532 OA
ENDBRANCH   1   8
BRANCH   3  11
HETATM   11  N   UNL     1       2.559   4.714   1.471  1.00  0.00    -0.302 NA
HETATM   12  H   UNL     1       1.946   4.903   0.682  1.00  0.00     0.124 HD
HETATM   13  H   UNL     1       3.225   5.466   1.604  1.00  0.00     0.124 HD
ENDBRANCH   3  11
TORSDOF 2
