REMARK  3 active torsions:
REMARK  status: ('A' for Active; 'I' for Inactive)
REMARK    1  A    between atoms: O_1  and  C_2 
REMARK    2  A    between atoms: C_2  and  C_4 
REMARK    3  A    between atoms: C_7  and  N_10 
ROOT
HETATM    1  C   UNL     1       3.127   0.737  -1.210  1.00  0.00     0.037 A 
HETATM    2  C   UNL     1       2.947   2.124  -1.284  1.00  0.00     0.021 A 
HETATM    3  C   UNL     1       3.431   2.825  -2.392  1.00  0.00     0.037 A 
HETATM    4  C   UNL     1       4.093   2.131  -3.418  1.00  0.00     0.102 A 
HETATM    5  C   UNL     1       4.286   0.743  -3.334  1.00  0.00     0.037 A 
HETATM    6  C   UNL     1       3.807   0.048  -2.220  1.00  0.00     0.021 A 
ENDROOT
BRANCH   1   7
HETATM    7  C   UNL     1       2.623  -0.023  -0.049  1.00  0.00     0.176 C 
HETATM    8  O   UNL     1       3.315  -0.781   0.604  1.00  0.00    -0.646 OA
BRANCH   7   9
HETATM    9  O   UNL     1       1.306   0.181   0.158  1.00  0.00    -0.773 OA
HETATM   10  H   UNL     1       0.857   0.698  -0.538  1.00  0.00     0.167 HD
ENDBRANCH   7   9
ENDBRANCH   1   7
BRANCH   4  11
HETATM   11  N   UNL     1       4.588   2.864  -4.591  1.00  0.00    -0.116 N 
HETATM   12  O   UNL     1       4.387   4.086  -4.630  1.00  0.00    -0.532 OA
HETATM   13  O   UNL     1       5.166   2.216  -5.474  1.00  0.00    -0.532 OA
ENDBRANCH   4  11
TORSDOF 3
