REMARK  1 active torsions:
REMARK  status: ('A' for Active; 'I' for Inactive)
REMARK    1  A    between atoms: N_2  and  C_3 
ROOT
HETATM    1  C   UNL     1       2.988   0.286  -1.190  1.00  0.00     0.102 A 
HETATM    2  C   UNL     1       2.995   1.614  -1.631  1.00  0.00     0.036 A 
HETATM    3  C   UNL     1       3.581   1.917  -2.860  1.00  0.00     0.002 A 
HETATM    4  C   UNL     1       4.144   0.900  -3.636  1.00  0.00     0.000 A 
HETATM    5  C   UNL     1       4.128  -0.424  -3.189  1.00  0.00     0.002 A 
HETATM    6  C   UNL     1       3.552  -0.739  -1.958  1.00  0.00     0.036 A 
ENDROOT
BRANCH   1   7
HETATM    7  N   UNL     1       2.380  -0.037   0.097  1.00  0.00    -0.116 N 
HETATM    8  O   UNL     1       1.392   0.625   0.444  1.00  0.00    -0.532 OA
HETATM    9  O   UNL     1       2.893  -0.952   0.757  1.00  0.00    -0.532 OA
ENDBRANCH   1   7
TORSDOF 1
