REMARK  2 active torsions:
REMARK  status: ('A' for Active; 'I' for Inactive)
REMARK    1  A    between atoms: N_2  and  C_3 
REMARK    2  A    between atoms: C_6  and  N_9 
ROOT
HETATM    1  C   UNL     1       2.904   0.999   0.879  1.00  0.00     0.102 A 
HETATM    2  C   UNL     1       2.422   2.309   0.807  1.00  0.00     0.038 A 
HETATM    3  C   UNL     1       3.088   3.320   1.508  1.00  0.00     0.026 A 
HETATM    4  C   UNL     1       4.245   3.041   2.244  1.00  0.00     0.005 A 
HETATM    5  C   UNL     1       4.673   1.713   2.354  1.00  0.00     0.026 A 
HETATM    6  C   UNL     1       4.024   0.690   1.656  1.00  0.00     0.038 A 
ENDROOT
BRANCH   1   7
HETATM    7  N   UNL     1       2.216  -0.066   0.148  1.00  0.00    -0.116 N 
HETATM    8  O   UNL     1       1.026   0.115  -0.147  1.00  0.00    -0.532 OA
HETATM    9  O   UNL     1       2.868  -1.082  -0.133  1.00  0.00    -0.532 OA
ENDBRANCH   1   7
BRANCH   4  10
HETATM   10  N   UNL     1       4.824   4.032   3.042  1.00  0.00    -0.303 NA
HETATM   11  H   UNL     1       4.688   4.977   2.696  1.00  0.00     0.124 HD
HETATM   12  H   UNL     1       5.792   3.853   3.292  1.00  0.00     0.124 HD
ENDBRANCH   4  10
TORSDOF 2
