REMARK  3 active torsions:
REMARK  status: ('A' for Active; 'I' for Inactive)
REMARK    1  A    between atoms: C_3  and  O_9 
REMARK    2  A    between atoms: O_9  and  C_10 
REMARK    3  A    between atoms: C_13  and  N_16 
ROOT
HETATM    1  C   UNL     1       3.717   3.521  -0.314  1.00  0.00     0.076 A 
HETATM    2  C   UNL     1       3.082   4.677   0.161  1.00  0.00     0.040 A 
HETATM    3  C   UNL     1       3.606   5.945  -0.102  1.00  0.00     0.039 A 
HETATM    4  C   UNL     1       4.787   6.053  -0.843  1.00  0.00     0.103 A 
HETATM    5  C   UNL     1       5.404   4.910  -1.367  1.00  0.00     0.039 A 
HETATM    6  C   UNL     1       4.845   3.648  -1.129  1.00  0.00     0.040 A 
ENDROOT
BRANCH   1   7
HETATM    7  O   UNL     1       3.094   2.350   0.047  1.00  0.00    -0.309 OA
BRANCH   7   8
HETATM    8  C   UNL     1       3.709   1.121  -0.006  1.00  0.00     0.098 A 
HETATM    9  C   UNL     1       2.881   0.009  -0.231  1.00  0.00     0.069 A 
HETATM   10 CL   UNL     1       1.171   0.187  -0.417  1.00  0.00    -0.081 Cl
HETATM   11  C   UNL     1       3.414  -1.281  -0.295  1.00  0.00     0.050 A 
HETATM   12  C   UNL     1       4.783  -1.463  -0.128  1.00  0.00     0.035 A 
HETATM   13  C   UNL     1       5.611  -0.378   0.150  1.00  0.00     0.026 A 
HETATM   14 CL   UNL     1       5.456  -3.042  -0.248  1.00  0.00    -0.084 Cl
HETATM   15  C   UNL     1       5.069   0.908   0.245  1.00  0.00     0.041 A 
ENDBRANCH   7   8
ENDBRANCH   1   7
BRANCH   4  16
HETATM   16  N   UNL     1       5.387   7.372  -1.067  1.00  0.00    -0.116 N 
HETATM   17  O   UNL     1       4.693   8.369  -0.829  1.00  0.00    -0.532 OA
HETATM   18  O   UNL     1       6.559   7.407  -1.471  1.00  0.00    -0.532 OA
ENDBRANCH   4  16
TORSDOF 3
