REMARK  3 active torsions:
REMARK  status: ('A' for Active; 'I' for Inactive)
REMARK    1  A    between atoms: N_3  and  N_8 
REMARK    2  A    between atoms: C_9  and  C_10 
REMARK    3  A    between atoms: C_13  and  N_15 
ROOT
HETATM    1  N   UNL     1       2.809  -2.483   0.171  1.00  0.00    -0.178 NA
HETATM    2  C   UNL     1       1.801  -2.839   0.901  1.00  0.00     0.176 C 
ENDROOT
BRANCH   1   3
HETATM    3  N   UNL     1       3.090  -1.157   0.002  1.00  0.00    -0.211 N 
HETATM    4  C   UNL     1       2.272  -0.044   0.239  1.00  0.00     0.345 A 
HETATM    5  O   UNL     1       1.128  -0.014   0.663  1.00  0.00    -0.245 OA
HETATM    6  N   UNL     1       2.980   1.065  -0.112  1.00  0.00    -0.276 N 
HETATM    7  C   UNL     1       4.196   0.730  -0.613  1.00  0.00     0.245 A 
HETATM    8  H   UNL     1       2.623   2.003  -0.049  1.00  0.00     0.173 HD
HETATM    9  C   UNL     1       4.355  -0.775  -0.581  1.00  0.00     0.259 A 
HETATM   10  O   UNL     1       5.025   1.525  -1.029  1.00  0.00    -0.271 OA
ENDBRANCH   1   3
BRANCH   2  11
HETATM   11  C   UNL     1       1.539  -4.240   1.094  1.00  0.00     0.097 A 
HETATM   12  C   UNL     1       2.064  -5.372   0.491  1.00  0.00     0.043 A 
HETATM   13  C   UNL     1       1.488  -6.493   1.141  1.00  0.00     0.065 A 
HETATM   14  C   UNL     1       0.650  -5.967   2.095  1.00  0.00     0.215 A 
HETATM   15  O   UNL     1       0.651  -4.606   2.070  1.00  0.00    -0.287 OA
BRANCH  14  16
HETATM   16  N   UNL     1      -0.167  -6.590   3.088  1.00  0.00    -0.090 N 
HETATM   17  O   UNL     1      -0.136  -7.827   3.123  1.00  0.00    -0.530 OA
HETATM   18  O   UNL     1      -0.828  -5.859   3.835  1.00  0.00    -0.530 OA
ENDBRANCH  14  16
ENDBRANCH   2  11
TORSDOF 3
