REMARK  3 active torsions:
REMARK  status: ('A' for Active; 'I' for Inactive)
REMARK    1  A    between atoms: C_2  and  N_3 
REMARK    2  A    between atoms: N_3  and  C_4 
REMARK    3  A    between atoms: N_3  and  N_6 
ROOT
HETATM    1  N   UNL     1       2.870  -0.868  -1.128  1.00  0.00    -0.282 N 
ENDROOT
BRANCH   1   2
HETATM    2  C   UNL     1       2.476  -0.053   0.015  1.00  0.00     0.142 C 
HETATM    3  C   UNL     1       1.024   0.218   0.378  1.00  0.00     0.028 C 
ENDBRANCH   1   2
BRANCH   1   4
HETATM    4  C   UNL     1       1.996  -1.583  -2.057  1.00  0.00     0.142 C 
HETATM    5  C   UNL     1       0.479  -1.517  -1.971  1.00  0.00     0.028 C 
ENDBRANCH   1   4
BRANCH   1   6
HETATM    6  N   UNL     1       4.179  -0.984  -1.251  1.00  0.00    -0.017 NA
HETATM    7  O   UNL     1       4.536  -1.683  -2.205  1.00  0.00    -0.042 OA
ENDBRANCH   1   6
TORSDOF 3
