REMARK  3 active torsions:
REMARK  status: ('A' for Active; 'I' for Inactive)
REMARK    1  A    between atoms: N_2  and  N_3 
REMARK    2  A    between atoms: N_3  and  C_4 
REMARK    3  A    between atoms: N_3  and  C_10 
ROOT
HETATM    1  N   UNL     1       3.071   0.925  -0.943  1.00  0.00    -0.209 N 
ENDROOT
BRANCH   1   2
HETATM    2  N   UNL     1       2.402  -0.093  -0.315  1.00  0.00    -0.006 NA
HETATM    3  O   UNL     1       1.197   0.114  -0.131  1.00  0.00    -0.041 OA
ENDBRANCH   1   2
BRANCH   1   4
HETATM    4  C   UNL     1       2.385   1.829  -1.832  1.00  0.00     0.061 A 
HETATM    5  C   UNL     1       1.499   1.354  -2.816  1.00  0.00     0.031 A 
HETATM    6  C   UNL     1       0.855   2.238  -3.686  1.00  0.00     0.002 A 
HETATM    7  C   UNL     1       1.078   3.609  -3.579  1.00  0.00     0.000 A 
HETATM    8  C   UNL     1       1.941   4.101  -2.602  1.00  0.00     0.002 A 
HETATM    9  C   UNL     1       2.591   3.218  -1.736  1.00  0.00     0.031 A 
ENDBRANCH   1   4
BRANCH   1  10
HETATM   10  C   UNL     1       4.509   0.971  -0.796  1.00  0.00     0.061 A 
HETATM   11  C   UNL     1       5.142   0.444   0.347  1.00  0.00     0.031 A 
HETATM   12  C   UNL     1       6.533   0.473   0.487  1.00  0.00     0.002 A 
HETATM   13  C   UNL     1       7.324   1.024  -0.516  1.00  0.00     0.000 A 
HETATM   14  C   UNL     1       6.727   1.545  -1.659  1.00  0.00     0.002 A 
HETATM   15  C   UNL     1       5.336   1.518  -1.798  1.00  0.00     0.031 A 
ENDBRANCH   1  10
TORSDOF 3
