REMARK  5 active torsions:
REMARK  status: ('A' for Active; 'I' for Inactive)
REMARK    1  A    between atoms: N_2  and  N_3 
REMARK    2  A    between atoms: N_3  and  C_4 
REMARK    3  A    between atoms: N_3  and  C_5 
REMARK    4  A    between atoms: C_4  and  C_8 
REMARK    5  A    between atoms: C_5  and  C_6 
ROOT
HETATM    1  N   UNL     1       2.861   1.266  -0.109  1.00  0.00    -0.183 NA
ENDROOT
BRANCH   1   2
HETATM    2  N   UNL     1       2.411   0.061  -0.397  1.00  0.00    -0.041 NA
HETATM    3  O   UNL     1       1.621  -0.322   0.468  1.00  0.00    -0.047 OA
ENDBRANCH   1   2
BRANCH   1   4
HETATM    4  C   UNL     1       2.107   2.364  -0.748  1.00  0.00     0.117 C 
BRANCH   4   5
HETATM    5  C   UNL     1       0.583   2.322  -0.531  1.00  0.00     0.012 C 
HETATM    6  C   UNL     1      -0.074   3.624  -0.967  1.00  0.00     0.006 C 
ENDBRANCH   4   5
ENDBRANCH   1   4
BRANCH   1   7
HETATM    7  C   UNL     1       4.321   1.343  -0.354  1.00  0.00     0.117 C 
BRANCH   7   8
HETATM    8  C   UNL     1       4.945   2.739  -0.516  1.00  0.00     0.012 C 
HETATM    9  C   UNL     1       6.462   2.660  -0.615  1.00  0.00     0.006 C 
ENDBRANCH   7   8
ENDBRANCH   1   7
TORSDOF 5
