REMARK  4 active torsions:
REMARK  status: ('A' for Active; 'I' for Inactive)
REMARK    1  A    between atoms: C_2  and  C_3 
REMARK       I    between atoms: C_2  and  N_12 
REMARK    2  A    between atoms: C_3  and  S_10 
REMARK    3  A    between atoms: N_4  and  O_5 
REMARK    4  A    between atoms: O_5  and  C_6 
REMARK       I    between atoms: C_6  and  N_8 
ROOT
HETATM    1  C   UNL     1       3.219   1.235   0.547  1.00  0.00     0.188 C 
HETATM    2  N   UNL     1       4.509   1.216   0.538  1.00  0.00    -0.111 NA
ENDROOT
BRANCH   1   3
HETATM    3  C   UNL     1       2.375   0.046  -0.021  1.00  0.00     0.280 C 
HETATM    4  O   UNL     1       1.143   0.099   0.004  1.00  0.00    -0.265 OA
HETATM    5  N   UNL     1       3.001  -1.098  -0.568  1.00  0.00    -0.355 N 
HETATM    6  C   UNL     1       2.140  -2.160  -1.075  1.00  0.00     0.152 C 
HETATM    7  C   UNL     1       4.425  -1.383  -0.704  1.00  0.00     0.152 C 
ENDBRANCH   1   3
BRANCH   1   8
HETATM    8  S   UNL     1       2.068   2.418   1.112  1.00  0.00    -0.107 SA
HETATM    9  C   UNL     1       3.000   3.794   1.768  1.00  0.00     0.097 C 
ENDBRANCH   1   8
BRANCH   2  10
HETATM   10  O   UNL     1       5.154   2.333   1.071  1.00  0.00    -0.155 OA
BRANCH  10  11
HETATM   11  C   UNL     1       6.517   2.167   0.991  1.00  0.00     0.384 C 
HETATM   12  O   UNL     1       7.097   1.193   0.526  1.00  0.00    -0.236 OA
HETATM   13  N   UNL     1       7.148   3.263   1.515  1.00  0.00    -0.340 N 
HETATM   14  C   UNL     1       8.581   3.383   1.572  1.00  0.00     0.151 C 
HETATM   15  H   UNL     1       6.566   4.006   1.870  1.00  0.00     0.164 HD
ENDBRANCH  10  11
ENDBRANCH   2  10
TORSDOF 4
