REMARK  8 active torsions:
REMARK  status: ('A' for Active; 'I' for Inactive)
REMARK    1  A    between atoms: C_1  and  O_20 
REMARK    2  A    between atoms: C_4  and  C_15 
REMARK    3  A    between atoms: C_5  and  O_22 
REMARK    4  A    between atoms: C_8  and  O_23 
REMARK    5  A    between atoms: C_10  and  O_32 
REMARK    6  A    between atoms: C_11  and  N_16 
REMARK    7  A    between atoms: C_12  and  O_24 
REMARK       I    between atoms: C_15  and  N_25 
REMARK    8  A    between atoms: C_19  and  O_27 
ROOT
HETATM    1  C   UNL     1       0.936   2.474  -2.603  1.00  0.00     0.180 C 
HETATM    2  C   UNL     1       0.198   1.959  -0.153  1.00  0.00     0.035 C 
HETATM    3  C   UNL     1       2.115   1.686  -2.116  1.00  0.00     0.093 C 
HETATM    4  C   UNL     1       3.251   3.173  -3.903  1.00  0.00     0.112 C 
HETATM    5  C   UNL     1       0.061   2.696  -1.310  1.00  0.00     0.097 C 
HETATM    6  C   UNL     1       1.183   0.802  -0.007  1.00  0.00     0.093 C 
HETATM    7  C   UNL     1       1.722   3.427  -3.687  1.00  0.00     0.208 C 
HETATM    8  C   UNL     1       3.957   2.788  -2.805  1.00  0.00     0.085 C 
HETATM    9  C   UNL     1      -0.523   2.205   1.166  1.00  0.00     0.195 C 
HETATM   10  C   UNL     1       0.600  -0.466   0.682  1.00  0.00     0.092 C 
HETATM   11  C   UNL     1       3.178   2.733  -1.517  1.00  0.00     0.146 C 
HETATM   12  C   UNL     1       1.767   0.449  -1.343  1.00  0.00     0.140 C 
HETATM   13  C   UNL     1      -0.312   1.227   2.306  1.00  0.00     0.057 A 
HETATM   14  C   UNL     1       0.234  -0.056   2.087  1.00  0.00    -0.007 A 
HETATM   15  O   UNL     1       1.103   4.206  -4.414  1.00  0.00    -0.288 OA
HETATM   16  O   UNL     1      -1.168   3.229   1.391  1.00  0.00    -0.287 OA
HETATM   17  C   UNL     1      -0.619   1.598   3.628  1.00  0.00     0.080 A 
HETATM   18  C   UNL     1       0.439  -0.925   3.181  1.00  0.00     0.011 A 
HETATM   19  C   UNL     1       0.146  -0.529   4.480  1.00  0.00     0.003 A 
HETATM   20  C   UNL     1      -0.381   0.735   4.703  1.00  0.00     0.037 A 
HETATM   21  C   UNL     1       1.593  -1.653   0.611  1.00  0.00     0.052 C 
ENDROOT
BRANCH   4  22
HETATM   22  C   UNL     1       3.862   2.744  -5.169  1.00  0.00     0.255 C 
HETATM   23  O   UNL     1       3.553   1.687  -5.704  1.00  0.00    -0.268 OA
HETATM   24  N   UNL     1       4.965   3.446  -5.553  1.00  0.00    -0.366 N 
HETATM   25  H   UNL     1       5.294   4.266  -5.060  1.00  0.00     0.159 HD
HETATM   26  H   UNL     1       5.513   3.092  -6.327  1.00  0.00     0.159 HD
ENDBRANCH   4  22
BRANCH   8  27
HETATM   27  O   UNL     1       5.195   2.178  -2.747  1.00  0.00    -0.362 OA
HETATM   28  H   UNL     1       5.410   1.763  -3.603  1.00  0.00     0.217 HD
ENDBRANCH   8  27
BRANCH   1  29
HETATM   29  O   UNL     1       0.073   1.683  -3.450  1.00  0.00    -0.374 OA
HETATM   30  H   UNL     1      -0.368   2.318  -4.053  1.00  0.00     0.211 HD
ENDBRANCH   1  29
BRANCH  11  31
HETATM   31  N   UNL     1       3.083   4.196  -1.247  1.00  0.00    -0.410 N 
HETATM   32  C   UNL     1       1.917   4.939  -0.813  1.00  0.00     0.143 C 
HETATM   33  C   UNL     1       4.298   4.793  -0.687  1.00  0.00     0.143 C 
ENDBRANCH  11  31
BRANCH   5  34
HETATM   34  O   UNL     1      -0.912   3.681  -1.389  1.00  0.00    -0.361 OA
HETATM   35  H   UNL     1      -1.033   3.974  -2.308  1.00  0.00     0.217 HD
ENDBRANCH   5  34
BRANCH  12  36
HETATM   36  O   UNL     1       0.864  -0.392  -2.088  1.00  0.00    -0.394 OA
HETATM   37  H   UNL     1       0.309   0.171  -2.679  1.00  0.00     0.210 HD
ENDBRANCH  12  36
BRANCH  10  38
HETATM   38  O   UNL     1      -0.611  -0.889   0.056  1.00  0.00    -0.385 OA
HETATM   39  H   UNL     1      -0.387  -1.047  -0.885  1.00  0.00     0.211 HD
ENDBRANCH  10  38
BRANCH  17  40
HETATM   40  O   UNL     1      -1.144   2.820   3.958  1.00  0.00    -0.360 OA
HETATM   41  H   UNL     1      -1.358   3.285   3.118  1.00  0.00     0.217 HD
ENDBRANCH  17  40
TORSDOF 8
