REMARK  4 active torsions:
REMARK  status: ('A' for Active; 'I' for Inactive)
REMARK    1  A    between atoms: N_1  and  C_2 
REMARK    2  A    between atoms: C_5  and  O_8 
REMARK    3  A    between atoms: O_8  and  C_9 
REMARK    4  A    between atoms: C_12  and  N_15 
ROOT
HETATM    1  O   UNL     1       6.619  -0.167  -0.196  1.00  0.00    -0.311 OA
ENDROOT
BRANCH   1   2
HETATM    2  C   UNL     1       5.252  -0.145  -0.089  1.00  0.00     0.076 A 
HETATM    3  C   UNL     1       4.607   0.934  -0.691  1.00  0.00     0.039 A 
HETATM    4  C   UNL     1       3.225   1.093  -0.556  1.00  0.00     0.026 A 
HETATM    5  C   UNL     1       2.467   0.154   0.146  1.00  0.00     0.005 A 
HETATM    6  C   UNL     1       3.134  -0.876   0.817  1.00  0.00     0.026 A 
HETATM    7  C   UNL     1       4.521  -1.028   0.704  1.00  0.00     0.039 A 
BRANCH   5   8
HETATM    8  N   UNL     1       1.105   0.382   0.378  1.00  0.00    -0.303 NA
HETATM    9  H   UNL     1       0.656   0.939  -0.343  1.00  0.00     0.124 HD
HETATM   10  H   UNL     1       0.581  -0.458   0.596  1.00  0.00     0.124 HD
ENDBRANCH   5   8
ENDBRANCH   1   2
BRANCH   1  11
HETATM   11  C   UNL     1       7.296  -1.308  -0.559  1.00  0.00     0.076 A 
HETATM   12  C   UNL     1       8.687  -1.193  -0.484  1.00  0.00     0.039 A 
HETATM   13  C   UNL     1       9.513  -2.265  -0.834  1.00  0.00     0.026 A 
HETATM   14  C   UNL     1       8.965  -3.460  -1.300  1.00  0.00     0.005 A 
HETATM   15  C   UNL     1       7.574  -3.586  -1.330  1.00  0.00     0.026 A 
HETATM   16  C   UNL     1       6.742  -2.507  -1.002  1.00  0.00     0.039 A 
BRANCH  14  17
HETATM   17  N   UNL     1       9.784  -4.575  -1.510  1.00  0.00    -0.303 NA
HETATM   18  H   UNL     1      10.733  -4.339  -1.782  1.00  0.00     0.124 HD
HETATM   19  H   UNL     1       9.374  -5.278  -2.116  1.00  0.00     0.124 HD
ENDBRANCH  14  17
ENDBRANCH   1  11
TORSDOF 4
