REMARK  1 active torsions:
REMARK  status: ('A' for Active; 'I' for Inactive)
REMARK    1  A    between atoms: O_1  and  C_2 
ROOT
HETATM    1  C   UNL     1       2.433   0.092  -0.051  1.00  0.00     0.112 A 
HETATM    2  C   UNL     1       3.146  -1.113  -0.050  1.00  0.00     0.092 A 
HETATM    3  C   UNL     1       4.548  -1.099  -0.047  1.00  0.00     0.082 A 
HETATM    4  C   UNL     1       5.232   0.134  -0.046  1.00  0.00     0.081 A 
HETATM    5  C   UNL     1       4.510   1.345  -0.047  1.00  0.00     0.082 A 
HETATM    6  C   UNL     1       3.106   1.321  -0.050  1.00  0.00     0.092 A 
HETATM    7 CL   UNL     1       2.175   2.787  -0.052  1.00  0.00    -0.079 Cl
HETATM    8 CL   UNL     1       5.353   2.869  -0.046  1.00  0.00    -0.081 Cl
HETATM    9 CL   UNL     1       6.975   0.158  -0.042  1.00  0.00    -0.081 Cl
HETATM   10 CL   UNL     1       5.428  -2.600  -0.045  1.00  0.00    -0.081 Cl
HETATM   11 CL   UNL     1       2.239  -2.594  -0.051  1.00  0.00    -0.079 Cl
ENDROOT
BRANCH   1  12
HETATM   12  O   UNL     1       1.058   0.083  -0.054  1.00  0.00    -0.357 OA
HETATM   13  H   UNL     1       0.747  -0.843  -0.054  1.00  0.00     0.217 HD
ENDBRANCH   1  12
TORSDOF 1
