REMARK  1 active torsions:
REMARK  status: ('A' for Active; 'I' for Inactive)
REMARK    1  A    between atoms: C_3  and  N_12 
ROOT
HETATM    1 CL   UNL     1       0.901   0.052  -0.022  1.00  0.00    -0.080 Cl
HETATM    2  C   UNL     1       2.647  -0.056  -0.026  1.00  0.00     0.092 A 
HETATM    3  C   UNL     1       3.367  -1.283  -0.027  1.00  0.00     0.149 A 
HETATM    4  C   UNL     1       4.790  -1.246  -0.024  1.00  0.00     0.092 A 
HETATM    5  C   UNL     1       5.467   0.001  -0.021  1.00  0.00     0.081 A 
HETATM    6  C   UNL     1       4.750   1.206  -0.022  1.00  0.00     0.081 A 
HETATM    7  C   UNL     1       3.347   1.178  -0.025  1.00  0.00     0.081 A 
HETATM    8 CL   UNL     1       2.473   2.693  -0.026  1.00  0.00    -0.081 Cl
HETATM    9 CL   UNL     1       5.596   2.731  -0.021  1.00  0.00    -0.081 Cl
HETATM   10 CL   UNL     1       7.216   0.059  -0.017  1.00  0.00    -0.081 Cl
HETATM   11 CL   UNL     1       5.804  -2.671  -0.024  1.00  0.00    -0.080 Cl
ENDROOT
BRANCH   3  12
HETATM   12  N   UNL     1       2.643  -2.587  -0.033  1.00  0.00    -0.112 N 
HETATM   13  O   UNL     1       3.291  -3.636  -0.014  1.00  0.00    -0.532 OA
HETATM   14  O   UNL     1       1.411  -2.592  -0.058  1.00  0.00    -0.532 OA
ENDBRANCH   3  12
TORSDOF 1
