REMARK  7 active torsions:
REMARK  status: ('A' for Active; 'I' for Inactive)
REMARK    1  A    between atoms: P_2  and  O_3 
REMARK    2  A    between atoms: P_2  and  O_13 
REMARK    3  A    between atoms: P_2  and  O_16 
REMARK    4  A    between atoms: O_3  and  C_4 
REMARK    5  A    between atoms: C_7  and  N_10 
REMARK    6  A    between atoms: O_13  and  C_14 
REMARK    7  A    between atoms: O_16  and  C_17 
ROOT
HETATM    1  C   UNL     1       2.975  -2.630   0.641  1.00  0.00     0.079 A 
HETATM    2  C   UNL     1       4.192  -3.055   1.168  1.00  0.00     0.040 A 
HETATM    3  C   UNL     1       4.215  -4.061   2.140  1.00  0.00     0.039 A 
HETATM    4  C   UNL     1       3.010  -4.635   2.575  1.00  0.00     0.103 A 
HETATM    5  C   UNL     1       1.790  -4.221   2.032  1.00  0.00     0.039 A 
HETATM    6  C   UNL     1       1.782  -3.232   1.047  1.00  0.00     0.040 A 
ENDROOT
BRANCH   1   7
HETATM    7  O   UNL     1       2.951  -1.668  -0.344  1.00  0.00    -0.272 OA
BRANCH   7   8
HETATM    8  P   UNL     1       2.833  -0.042   0.064  1.00  0.00     0.333 P 
HETATM    9  S   UNL     1       0.935  -0.042   0.064  1.00  0.00    -0.007 SA
BRANCH   8  10
HETATM   10  O   UNL     1       2.930   0.632  -1.492  1.00  0.00    -0.314 OA
BRANCH  10  11
HETATM   11  C   UNL     1       2.042   1.644  -1.988  1.00  0.00     0.174 C 
HETATM   12  C   UNL     1       2.639   2.435  -3.131  1.00  0.00     0.034 C 
ENDBRANCH  10  11
ENDBRANCH   8  10
BRANCH   8  13
HETATM   13  O   UNL     1       4.562  -0.042   0.064  1.00  0.00    -0.314 OA
BRANCH  13  14
HETATM   14  C   UNL     1       5.293  -0.184  -1.156  1.00  0.00     0.174 C 
HETATM   15  C   UNL     1       6.772  -0.315  -0.854  1.00  0.00     0.034 C 
ENDBRANCH  13  14
ENDBRANCH   8  13
ENDBRANCH   7   8
ENDBRANCH   1   7
BRANCH   4  16
HETATM   16  N   UNL     1       3.029  -5.689   3.597  1.00  0.00    -0.116 N 
HETATM   17  O   UNL     1       4.131  -6.115   3.965  1.00  0.00    -0.532 OA
HETATM   18  O   UNL     1       1.938  -6.090   4.032  1.00  0.00    -0.532 OA
ENDBRANCH   4  16
TORSDOF 7
