REMARK  0 active torsions:
REMARK  status: ('A' for Active; 'I' for Inactive)
ROOT
HETATM    1  N   UNL     1      -0.000  -1.202  -0.044  1.00  0.00    -0.354 N 
HETATM    2  C   UNL     1       1.256  -0.575   0.001  1.00  0.00     0.050 A 
HETATM    3  C   UNL     1       1.397   0.823  -0.005  1.00  0.00     0.032 A 
HETATM    4  C   UNL     1       2.679   1.395   0.003  1.00  0.00     0.021 A 
HETATM    5  C   UNL     1       3.818   0.589   0.007  1.00  0.00     0.002 A 
HETATM    6  C   UNL     1       3.685  -0.795  -0.001  1.00  0.00     0.002 A 
HETATM    7  C   UNL     1       2.413  -1.372  -0.009  1.00  0.00     0.031 A 
HETATM    8  S   UNL     1       0.001   1.936  -0.018  1.00  0.00    -0.086 SA
HETATM    9  C   UNL     1      -1.396   0.824  -0.005  1.00  0.00     0.032 A 
HETATM   10  C   UNL     1      -2.678   1.396   0.003  1.00  0.00     0.021 A 
HETATM   11  C   UNL     1      -3.817   0.591   0.006  1.00  0.00     0.002 A 
HETATM   12  C   UNL     1      -3.685  -0.793  -0.001  1.00  0.00     0.002 A 
HETATM   13  C   UNL     1      -2.414  -1.370  -0.009  1.00  0.00     0.031 A 
HETATM   14  C   UNL     1      -1.257  -0.574   0.001  1.00  0.00     0.050 A 
HETATM   15  H   UNL     1      -0.001  -2.202   0.101  1.00  0.00     0.166 HD
ENDROOT
TORSDOF 0
