REMARK  1 active torsions:
REMARK  status: ('A' for Active; 'I' for Inactive)
REMARK    1  A    between atoms: O_1  and  C_2 
ROOT
HETATM    1  C   UNL     1       2.371  -0.005  -0.072  1.00  0.00     0.065 A 
HETATM    2  C   UNL     1       3.034   1.218  -0.137  1.00  0.00     0.036 A 
HETATM    3  C   UNL     1       4.425   1.237  -0.261  1.00  0.00     0.003 A 
HETATM    4  C   UNL     1       5.139   0.040  -0.319  1.00  0.00     0.000 A 
HETATM    5  C   UNL     1       4.465  -1.180  -0.253  1.00  0.00     0.003 A 
HETATM    6  C   UNL     1       3.076  -1.202  -0.130  1.00  0.00     0.036 A 
ENDROOT
BRANCH   1   7
HETATM    7  O   UNL     1       1.014  -0.071   0.048  1.00  0.00    -0.361 OA
HETATM    8  H   UNL     1       0.663   0.834   0.070  1.00  0.00     0.217 HD
ENDBRANCH   1   7
TORSDOF 1
