REMARK  4 active torsions:
REMARK  status: ('A' for Active; 'I' for Inactive)
REMARK    1  A    between atoms: C_4  and  C_11 
REMARK    2  A    between atoms: C_4  and  C_18 
REMARK    3  A    between atoms: C_14  and  O_17 
REMARK    4  A    between atoms: C_21  and  O_24 
ROOT
HETATM    1  O   UNL     1       1.598   0.037   0.161  1.00  0.00    -0.259 OA
HETATM    2  C   UNL     1       2.807   0.133   0.140  1.00  0.00     0.295 A 
HETATM    3  O   UNL     1       3.708  -0.889   0.131  1.00  0.00    -0.291 OA
HETATM    4  C   UNL     1       5.100  -0.436   0.044  1.00  0.00     0.153 A 
HETATM    5  C   UNL     1       4.914   1.063   0.092  1.00  0.00     0.002 A 
HETATM    6  C   UNL     1       3.571   1.367   0.126  1.00  0.00     0.049 A 
HETATM    7  C   UNL     1       3.101   2.671   0.125  1.00  0.00     0.018 A 
HETATM    8  C   UNL     1       4.039   3.706   0.095  1.00  0.00     0.001 A 
HETATM    9  C   UNL     1       5.410   3.419   0.062  1.00  0.00     0.001 A 
HETATM   10  C   UNL     1       5.853   2.095   0.054  1.00  0.00     0.012 A 
ENDROOT
BRANCH   4  11
HETATM   11  C   UNL     1       5.613  -0.939  -1.339  1.00  0.00    -0.014 A 
HETATM   12  C   UNL     1       6.043  -0.056  -2.356  1.00  0.00     0.013 A 
HETATM   13  C   UNL     1       6.433  -0.503  -3.625  1.00  0.00     0.037 A 
HETATM   14  C   UNL     1       6.401  -1.856  -3.912  1.00  0.00     0.065 A 
HETATM   15  C   UNL     1       5.979  -2.760  -2.952  1.00  0.00     0.037 A 
HETATM   16  C   UNL     1       5.574  -2.304  -1.689  1.00  0.00     0.013 A 
BRANCH  14  17
HETATM   17  O   UNL     1       6.757  -2.333  -5.136  1.00  0.00    -0.361 OA
HETATM   18  H   UNL     1       6.952  -1.579  -5.717  1.00  0.00     0.217 HD
ENDBRANCH  14  17
ENDBRANCH   4  11
BRANCH   4  19
HETATM   19  C   UNL     1       5.828  -1.015   1.291  1.00  0.00    -0.014 A 
HETATM   20  C   UNL     1       6.561  -0.212   2.192  1.00  0.00     0.013 A 
HETATM   21  C   UNL     1       7.230  -0.745   3.302  1.00  0.00     0.037 A 
HETATM   22  C   UNL     1       7.178  -2.106   3.540  1.00  0.00     0.065 A 
HETATM   23  C   UNL     1       6.428  -2.928   2.717  1.00  0.00     0.037 A 
HETATM   24  C   UNL     1       5.743  -2.384   1.621  1.00  0.00     0.013 A 
BRANCH  22  25
HETATM   25  O   UNL     1       7.842  -2.670   4.587  1.00  0.00    -0.361 OA
HETATM   26  H   UNL     1       8.373  -1.983   5.023  1.00  0.00     0.217 HD
ENDBRANCH  22  25
ENDBRANCH   4  19
TORSDOF 4
