REMARK  2 active torsions:
REMARK  status: ('A' for Active; 'I' for Inactive)
REMARK    1  A    between atoms: N_1  and  C_2 
REMARK    2  A    between atoms: C_4  and  N_8 
ROOT
HETATM    1  C   UNL     1       2.458   0.131   0.034  1.00  0.00     0.007 A 
HETATM    2  C   UNL     1       3.164   1.340   0.013  1.00  0.00     0.046 A 
HETATM    3  C   UNL     1       4.549   1.371  -0.191  1.00  0.00     0.007 A 
HETATM    4  C   UNL     1       5.248   0.163  -0.221  1.00  0.00     0.023 A 
HETATM    5  C   UNL     1       4.566  -1.051  -0.136  1.00  0.00     0.003 A 
HETATM    6  C   UNL     1       3.178  -1.064   0.002  1.00  0.00     0.023 A 
ENDROOT
BRANCH   1   7
HETATM    7  N   UNL     1       1.087   0.118   0.324  1.00  0.00    -0.303 NA
HETATM    8  H   UNL     1       0.601   0.960   0.032  1.00  0.00     0.124 HD
HETATM    9  H   UNL     1       0.614  -0.726   0.015  1.00  0.00     0.124 HD
ENDBRANCH   1   7
BRANCH   3  10
HETATM   10  N   UNL     1       5.247   2.585  -0.122  1.00  0.00    -0.303 NA
HETATM   11  H   UNL     1       4.695   3.388  -0.407  1.00  0.00     0.124 HD
HETATM   12  H   UNL     1       6.153   2.559  -0.579  1.00  0.00     0.124 HD
ENDBRANCH   3  10
TORSDOF 2
