REMARK  3 active torsions:
REMARK  status: ('A' for Active; 'I' for Inactive)
REMARK    1  A    between atoms: O_1  and  C_2 
REMARK    2  A    between atoms: C_7  and  N_8 
REMARK    3  A    between atoms: N_9  and  C_10 
ROOT
HETATM    1  C   UNL     1       2.138  -0.169  -0.220  1.00  0.00     0.097 A 
HETATM    2  C   UNL     1       2.863  -1.350  -0.085  1.00  0.00     0.040 A 
HETATM    3  C   UNL     1       4.254  -1.301  -0.055  1.00  0.00     0.015 A 
HETATM    4  C   UNL     1       4.937  -0.081  -0.151  1.00  0.00    -0.023 A 
HETATM    5  C   UNL     1       4.204   1.131  -0.271  1.00  0.00     0.007 A 
HETATM    6  C   UNL     1       2.784   1.080  -0.307  1.00  0.00     0.123 A 
HETATM    7  C   UNL     1       4.936   2.336  -0.357  1.00  0.00     0.015 A 
HETATM    8  C   UNL     1       6.333   2.348  -0.336  1.00  0.00     0.001 A 
HETATM    9  C   UNL     1       7.035   1.153  -0.231  1.00  0.00     0.001 A 
HETATM   10  C   UNL     1       6.341  -0.051  -0.138  1.00  0.00     0.012 A 
ENDROOT
BRANCH   6  11
HETATM   11  N   UNL     1       2.035   2.262  -0.521  1.00  0.00    -0.146 NA
HETATM   12  N   UNL     1       1.395   2.580   0.506  1.00  0.00    -0.150 NA
BRANCH  12  13
HETATM   13  C   UNL     1       0.595   3.704   0.233  1.00  0.00     0.079 A 
HETATM   14  C   UNL     1      -0.759   3.548  -0.089  1.00  0.00     0.033 A 
HETATM   15  C   UNL     1      -1.562   4.663  -0.344  1.00  0.00     0.002 A 
HETATM   16  C   UNL     1      -1.015   5.944  -0.273  1.00  0.00     0.000 A 
HETATM   17  C   UNL     1       0.329   6.112   0.057  1.00  0.00     0.002 A 
HETATM   18  C   UNL     1       1.128   4.996   0.313  1.00  0.00     0.033 A 
ENDBRANCH  12  13
ENDBRANCH   6  11
BRANCH   1  19
HETATM   19  O   UNL     1       0.768  -0.231  -0.288  1.00  0.00    -0.358 OA
HETATM   20  H   UNL     1       0.482  -1.144  -0.132  1.00  0.00     0.217 HD
ENDBRANCH   1  19
TORSDOF 3
