REMARK  2 active torsions:
REMARK  status: ('A' for Active; 'I' for Inactive)
REMARK    1  A    between atoms: O_1  and  C_2 
REMARK    2  A    between atoms: C_3  and  C_8 
ROOT
HETATM    1  C   UNL     1       2.408   0.059   0.186  1.00  0.00     0.076 A 
HETATM    2  C   UNL     1       3.028   1.248  -0.240  1.00  0.00     0.007 A 
HETATM    3  C   UNL     1       4.387   1.171  -0.603  1.00  0.00     0.015 A 
HETATM    4  C   UNL     1       5.087  -0.038  -0.554  1.00  0.00     0.001 A 
HETATM    5  C   UNL     1       4.440  -1.202  -0.148  1.00  0.00     0.003 A 
HETATM    6  C   UNL     1       3.098  -1.153   0.221  1.00  0.00     0.037 A 
ENDROOT
BRANCH   2   7
HETATM    7  C   UNL     1       2.319   2.537  -0.338  1.00  0.00    -0.023 A 
HETATM    8  C   UNL     1       1.159   2.667  -1.121  1.00  0.00     0.012 A 
HETATM    9  C   UNL     1       0.484   3.888  -1.213  1.00  0.00     0.001 A 
HETATM   10  C   UNL     1       0.967   5.003  -0.533  1.00  0.00     0.000 A 
HETATM   11  C   UNL     1       2.121   4.898   0.240  1.00  0.00     0.001 A 
HETATM   12  C   UNL     1       2.789   3.675   0.338  1.00  0.00     0.012 A 
ENDBRANCH   2   7
BRANCH   1  13
HETATM   13  O   UNL     1       1.106   0.012   0.614  1.00  0.00    -0.360 OA
HETATM   14  H   UNL     1       0.804   0.925   0.762  1.00  0.00     0.217 HD
ENDBRANCH   1  13
TORSDOF 2
