REMARK  13 active torsions:
REMARK  status: ('A' for Active; 'I' for Inactive)
REMARK    1  A    between atoms: C_2  and  C_3 
REMARK    2  A    between atoms: C_3  and  C_4 
REMARK    3  A    between atoms: C_9  and  C_10 
REMARK    4  A    between atoms: C_10  and  O_11 
REMARK    5  A    between atoms: O_11  and  C_12 
REMARK    6  A    between atoms: C_12  and  C_13 
REMARK    7  A    between atoms: C_13  and  O_14 
REMARK    8  A    between atoms: O_14  and  C_15 
REMARK    9  A    between atoms: C_15  and  C_16 
REMARK   10  A    between atoms: C_16  and  O_17 
REMARK   11  A    between atoms: O_17  and  C_18 
REMARK   12  A    between atoms: C_18  and  C_19 
REMARK   13  A    between atoms: C_19  and  C_20 
ROOT
HETATM    1  C   UNL     1       4.776   1.034   1.275  1.00  0.00    -0.047 A 
HETATM    2  C   UNL     1       5.750   0.386   0.483  1.00  0.00     0.047 A 
HETATM    3  C   UNL     1       7.085   0.538   0.798  1.00  0.00     0.105 A 
HETATM    4  C   UNL     1       7.494   1.312   1.847  1.00  0.00     0.105 A 
HETATM    5  C   UNL     1       6.590   1.980   2.640  1.00  0.00     0.049 A 
HETATM    6  C   UNL     1       5.206   1.848   2.371  1.00  0.00    -0.025 A 
HETATM    7  O   UNL     1       8.844   1.322   2.000  1.00  0.00    -0.323 OA
HETATM    8  C   UNL     1       9.237   0.427   0.940  1.00  0.00     0.352 A 
HETATM    9  O   UNL     1       8.128  -0.045   0.147  1.00  0.00    -0.323 OA
ENDROOT
BRANCH   6  10
HETATM   10  C   UNL     1       4.307   2.583   3.356  1.00  0.00     0.207 C 
BRANCH  10  11
HETATM   11  O   UNL     1       2.917   2.521   3.068  1.00  0.00    -0.385 OA
BRANCH  11  12
HETATM   12  C   UNL     1       2.132   2.966   4.167  1.00  0.00     0.194 C 
BRANCH  12  13
HETATM   13  C   UNL     1       0.654   2.778   3.850  1.00  0.00     0.193 C 
BRANCH  13  14
HETATM   14  O   UNL     1      -0.097   3.240   4.969  1.00  0.00    -0.387 OA
BRANCH  14  15
HETATM   15  C   UNL     1      -1.501   3.102   4.769  1.00  0.00     0.193 C 
BRANCH  15  16
HETATM   16  C   UNL     1      -2.207   3.698   5.980  1.00  0.00     0.193 C 
BRANCH  16  17
HETATM   17  O   UNL     1      -3.619   3.616   5.813  1.00  0.00    -0.389 OA
BRANCH  17  18
HETATM   18  C   UNL     1      -4.298   4.203   6.922  1.00  0.00     0.167 C 
BRANCH  18  19
HETATM   19  C   UNL     1      -5.797   4.087   6.684  1.00  0.00     0.026 C 
BRANCH  19  20
HETATM   20  C   UNL     1      -6.593   4.697   7.834  1.00  0.00    -0.002 C 
HETATM   21  C   UNL     1      -8.089   4.578   7.597  1.00  0.00     0.005 C 
ENDBRANCH  19  20
ENDBRANCH  18  19
ENDBRANCH  17  18
ENDBRANCH  16  17
ENDBRANCH  15  16
ENDBRANCH  14  15
ENDBRANCH  13  14
ENDBRANCH  12  13
ENDBRANCH  11  12
ENDBRANCH  10  11
ENDBRANCH   6  10
BRANCH   1  22
HETATM   22  C   UNL     1       3.299   0.860   0.962  1.00  0.00     0.039 C 
BRANCH  22  23
HETATM   23  C   UNL     1       2.896  -0.098  -0.167  1.00  0.00     0.000 C 
HETATM   24  C   UNL     1       1.381  -0.166  -0.303  1.00  0.00     0.005 C 
ENDBRANCH  22  23
ENDBRANCH   1  22
TORSDOF 13
