REMARK  3 active torsions:
REMARK  status: ('A' for Active; 'I' for Inactive)
REMARK    1  A    between atoms: CA_1  and  C_7 
REMARK    2  A    between atoms: C_5  and  N_9 
REMARK    3  A    between atoms: C_7  and  OXT_13 
ROOT
HETATM    1  CA  UNL     1      -0.623   1.280   0.001  1.00  0.00     0.155 A 
HETATM    2  N   UNL     1      -1.387   0.143  -0.021  1.00  0.00    -0.226 NA
HETATM    3  C   UNL     1       0.772   1.276   0.028  1.00  0.00     0.092 A 
HETATM    4  C   UNL     1       0.665  -1.151   0.022  1.00  0.00     0.097 A 
HETATM    5  C   UNL     1       1.437   0.028  -0.000  1.00  0.00     0.055 A 
HETATM    6  C   UNL     1      -0.720  -1.034  -0.004  1.00  0.00     0.150 A 
HETATM    7 CL   UNL     1       1.450  -2.696   0.050  1.00  0.00    -0.079 Cl
HETATM    8 CL   UNL     1       1.729   2.718   0.066  1.00  0.00    -0.080 Cl
HETATM    9 CL   UNL     1      -1.789  -2.382  -0.013  1.00  0.00    -0.060 Cl
ENDROOT
BRANCH   1  10
HETATM   10  C   UNL     1      -1.454   2.531  -0.004  1.00  0.00     0.197 C 
HETATM   11  O   UNL     1      -1.054   3.678  -0.013  1.00  0.00    -0.645 OA
BRANCH  10  12
HETATM   12  OXT UNL     1      -2.775   2.210  -0.005  1.00  0.00    -0.772 OA
HETATM   13  HXT UNL     1      -2.887   1.231  -0.003  1.00  0.00     0.167 HD
ENDBRANCH  10  12
ENDBRANCH   1  10
BRANCH   5  14
HETATM   14  N   UNL     1       2.842  -0.038   0.174  1.00  0.00    -0.300 NA
HETATM   15  H   UNL     1       3.343   0.797  -0.128  1.00  0.00     0.124 HD
HETATM   16  H   UNL     1       3.270  -0.905  -0.149  1.00  0.00     0.124 HD
ENDBRANCH   5  14
TORSDOF 3
