REMARK  4 active torsions:
REMARK  status: ('A' for Active; 'I' for Inactive)
REMARK    1  A    between atoms: C_3  and  C_12 
REMARK    2  A    between atoms: C_3  and  O_22 
REMARK    3  A    between atoms: C_12  and  C_25 
REMARK    4  A    between atoms: C_25  and  O_26 
ROOT
HETATM    1  C   UNL     1       2.083  -1.992  -0.428  1.00  0.00     0.005 C 
HETATM    2  C   UNL     1      -0.946   1.412  -0.299  1.00  0.00     0.008 A 
HETATM    3  C   UNL     1       2.350  -3.554  -0.322  1.00  0.00     0.128 C 
HETATM    4  C   UNL     1       0.084   0.330   0.203  1.00  0.00     0.076 C 
HETATM    5  C   UNL     1      -0.312  -1.070  -0.348  1.00  0.00     0.003 C 
HETATM    6  C   UNL     1       0.668  -2.010   0.282  1.00  0.00     0.002 C 
HETATM    7  C   UNL     1       1.655   0.527   0.037  1.00  0.00     0.133 C 
HETATM    8  C   UNL     1      -2.367   0.886   0.051  1.00  0.00    -0.063 A 
HETATM    9  C   UNL     1       2.639  -0.737   0.330  1.00  0.00     0.091 C 
HETATM   10  C   UNL     1      -0.721   2.768   0.359  1.00  0.00    -0.008 A 
HETATM   11  C   UNL     1      -3.231   1.516   0.864  1.00  0.00     0.058 A 
HETATM   12  C   UNL     1       1.635  -3.996   0.957  1.00  0.00     0.047 C 
HETATM   13  C   UNL     1       0.266  -3.405   0.726  1.00  0.00     0.009 C 
HETATM   14  C   UNL     1      -1.744  -1.482  -0.013  1.00  0.00     0.010 C 
HETATM   15  C   UNL     1      -1.604   3.410   1.138  1.00  0.00     0.052 A 
HETATM   16  C   UNL     1      -2.915   2.819   1.474  1.00  0.00     0.171 A 
HETATM   17  C   UNL     1      -2.750  -0.463  -0.493  1.00  0.00     0.036 C 
HETATM   18  O   UNL     1       2.136   1.630  -0.229  1.00  0.00    -0.297 OA
HETATM   19  O   UNL     1      -3.702   3.374   2.222  1.00  0.00    -0.289 OA
HETATM   20  C   UNL     1       2.309  -1.551  -1.909  1.00  0.00     0.019 C 
HETATM   21  C   UNL     1      -0.880   1.641  -1.824  1.00  0.00     0.025 C 
ENDROOT
BRANCH   3  22
HETATM   22  C   UNL     1       3.587  -4.446  -0.546  1.00  0.00     0.184 C 
HETATM   23  O   UNL     1       4.709  -3.984  -0.733  1.00  0.00    -0.292 OA
BRANCH  22  24
HETATM   24  C   UNL     1       3.256  -6.003  -0.593  1.00  0.00     0.245 C 
BRANCH  24  25
HETATM   25  O   UNL     1       4.196  -6.912  -1.120  1.00  0.00    -0.393 OA
HETATM   26  H   UNL     1       3.688  -7.652  -1.502  1.00  0.00     0.209 HD
ENDBRANCH  24  25
ENDBRANCH  22  24
ENDBRANCH   3  22
BRANCH   3  27
HETATM   27  O   UNL     1       1.538  -4.109  -1.437  1.00  0.00    -0.381 OA
HETATM   28  H   UNL     1       2.053  -4.018  -2.262  1.00  0.00     0.211 HD
ENDBRANCH   3  27
TORSDOF 4
