REMARK  4 active torsions:
REMARK  status: ('A' for Active; 'I' for Inactive)
REMARK    1  A    between atoms: C_4  and  N_12 
REMARK    2  A    between atoms: C_6  and  N_8 
REMARK    3  A    between atoms: N_8  and  C_9 
REMARK    4  A    between atoms: N_12  and  C_13 
ROOT
HETATM    1 CL   UNL     1       1.221   0.058   0.233  1.00  0.00    -0.040 Cl
HETATM    2  C   UNL     1       2.925   0.008   0.090  1.00  0.00     0.259 A 
HETATM    3  N   UNL     1       3.462  -1.198   0.028  1.00  0.00    -0.030 NA
HETATM    4  C   UNL     1       4.774  -1.181  -0.113  1.00  0.00     0.741 A 
HETATM    5  N   UNL     1       5.497  -0.069  -0.166  1.00  0.00     0.130 NA
HETATM    6  C   UNL     1       4.838   1.084  -0.139  1.00  0.00     0.741 A 
HETATM    7  N   UNL     1       3.533   1.182   0.022  1.00  0.00    -0.030 NA
ENDROOT
BRANCH   4   8
HETATM    8  N   UNL     1       5.478  -2.348  -0.266  1.00  0.00    -0.218 N 
HETATM    9  H   UNL     1       6.466  -2.228  -0.087  1.00  0.00     0.178 HD
BRANCH   8  10
HETATM   10  C   UNL     1       4.864  -3.655  -0.143  1.00  0.00     0.091 C 
HETATM   11  C   UNL     1       4.060  -3.977  -1.405  1.00  0.00     0.032 C 
HETATM   12  C   UNL     1       5.966  -4.701   0.036  1.00  0.00     0.032 C 
ENDBRANCH   8  10
ENDBRANCH   4   8
BRANCH   6  13
HETATM   13  N   UNL     1       5.501   2.279  -0.334  1.00  0.00    -0.218 N 
HETATM   14  H   UNL     1       4.944   3.034   0.047  1.00  0.00     0.178 HD
BRANCH  13  15
HETATM   15  C   UNL     1       6.946   2.352  -0.189  1.00  0.00     0.091 C 
HETATM   16  C   UNL     1       7.640   1.803  -1.438  1.00  0.00     0.032 C 
HETATM   17  C   UNL     1       7.339   3.820  -0.004  1.00  0.00     0.032 C 
ENDBRANCH  13  15
ENDBRANCH   6  13
TORSDOF 4
