REMARK  7 active torsions:
REMARK  status: ('A' for Active; 'I' for Inactive)
REMARK    1  A    between atoms: C_2  and  C_3 
REMARK    2  A    between atoms: C_2  and  O_12 
REMARK    3  A    between atoms: C_5  and  O_11 
REMARK    4  A    between atoms: C_6  and  O_10 
REMARK    5  A    between atoms: C_7  and  O_9 
REMARK    6  A    between atoms: O_12  and  C_13 
REMARK    7  A    between atoms: C_13  and  C_14 
ROOT
HETATM    1  C   UNL     1       3.140  -1.151  -0.723  1.00  0.00     0.044 A 
HETATM    2  C   UNL     1       2.815  -2.411  -0.190  1.00  0.00     0.057 A 
HETATM    3  C   UNL     1       3.396  -3.549  -0.737  1.00  0.00     0.102 A 
HETATM    4  C   UNL     1       4.284  -3.436  -1.802  1.00  0.00     0.132 A 
HETATM    5  C   UNL     1       4.582  -2.191  -2.340  1.00  0.00     0.102 A 
HETATM    6  C   UNL     1       4.006  -1.041  -1.820  1.00  0.00     0.057 A 
ENDROOT
BRANCH   1   7
HETATM    7  C   UNL     1       2.486   0.043  -0.140  1.00  0.00     0.293 C 
HETATM    8  O   UNL     1       1.302   0.004   0.170  1.00  0.00    -0.259 OA
BRANCH   7   9
HETATM    9  O   UNL     1       3.240   1.161  -0.001  1.00  0.00    -0.318 OA
BRANCH   9  10
HETATM   10  C   UNL     1       4.615   1.067   0.422  1.00  0.00     0.178 C 
BRANCH  10  11
HETATM   11  C   UNL     1       4.904   2.253   1.335  1.00  0.00     0.022 C 
HETATM   12  C   UNL     1       6.353   2.280   1.784  1.00  0.00     0.007 C 
ENDBRANCH  10  11
ENDBRANCH   9  10
ENDBRANCH   7   9
ENDBRANCH   1   7
BRANCH   3  13
HETATM   13  O   UNL     1       3.124  -4.802  -0.265  1.00  0.00    -0.358 OA
HETATM   14  H   UNL     1       2.439  -4.730   0.425  1.00  0.00     0.217 HD
ENDBRANCH   3  13
BRANCH   5  15
HETATM   15  O   UNL     1       5.443  -2.088  -3.393  1.00  0.00    -0.358 OA
HETATM   16  H   UNL     1       5.704  -3.011  -3.593  1.00  0.00     0.217 HD
ENDBRANCH   5  15
BRANCH   4  17
HETATM   17  O   UNL     1       4.866  -4.550  -2.343  1.00  0.00    -0.356 OA
HETATM   18  H   UNL     1       4.500  -5.294  -1.821  1.00  0.00     0.218 HD
ENDBRANCH   4  17
TORSDOF 7
