REMARK  2 active torsions:
REMARK  status: ('A' for Active; 'I' for Inactive)
REMARK    1  A    between atoms: C_4  and  C_9 
REMARK    2  A    between atoms: C_9  and  C_10 
ROOT
HETATM    1  O   UNL     1       0.935   0.164   0.039  1.00  0.00    -0.268 OA
HETATM    2  C   UNL     1       2.158   0.095   0.042  1.00  0.00     0.249 A 
HETATM    3  C   UNL     1       2.848  -1.212   0.045  1.00  0.00     0.099 A 
HETATM    4  C   UNL     1       4.188  -1.262   0.048  1.00  0.00     0.017 A 
HETATM    5  N   UNL     1       4.902  -0.082   0.049  1.00  0.00    -0.337 N 
HETATM    6  C   UNL     1       4.328   1.157   0.046  1.00  0.00     0.178 A 
HETATM    7  S   UNL     1       5.247   2.541   0.047  1.00  0.00    -0.040 SA
HETATM    8  N   UNL     1       2.966   1.197   0.043  1.00  0.00    -0.300 N 
HETATM    9  H   UNL     1       5.918  -0.111   0.051  1.00  0.00     0.168 HD
HETATM   10  H   UNL     1       2.507   2.096   0.041  1.00  0.00     0.171 HD
ENDROOT
BRANCH   4  11
HETATM   11  C   UNL     1       5.020  -2.527   0.052  1.00  0.00     0.057 C 
BRANCH  11  12
HETATM   12  C   UNL     1       4.244  -3.850   0.051  1.00  0.00     0.002 C 
HETATM   13  C   UNL     1       5.180  -5.049   0.055  1.00  0.00     0.005 C 
ENDBRANCH  11  12
ENDBRANCH   4  11
TORSDOF 2
