REMARK  3 active torsions:
REMARK  status: ('A' for Active; 'I' for Inactive)
REMARK    1  A    between atoms: C_2  and  C_3 
REMARK    2  A    between atoms: C_2  and  O_5 
REMARK    3  A    between atoms: C_3  and  O_4 
ROOT
HETATM    1  C   UNL     1       1.019  -0.013   0.102  1.00  0.00     0.041 C 
HETATM    2  C   UNL     1       2.542  -0.052   0.061  1.00  0.00     0.137 C 
ENDROOT
BRANCH   2   3
HETATM    3  C   UNL     1       3.079  -0.422  -1.327  1.00  0.00     0.195 C 
BRANCH   3   4
HETATM    4  O   UNL     1       2.653  -1.716  -1.731  1.00  0.00    -0.398 OA
HETATM    5  H   UNL     1       3.061  -2.359  -1.125  1.00  0.00     0.209 HD
ENDBRANCH   3   4
ENDBRANCH   2   3
BRANCH   2   6
HETATM    6  O   UNL     1       3.057   1.218   0.458  1.00  0.00    -0.394 OA
HETATM    7  H   UNL     1       2.662   1.894  -0.120  1.00  0.00     0.210 HD
ENDBRANCH   2   6
TORSDOF 3
