REMARK  4 active torsions:
REMARK  status: ('A' for Active; 'I' for Inactive)
REMARK    1  A    between atoms: N_1  and  C_2 
REMARK    2  A    between atoms: C_3  and  C_11 
REMARK    3  A    between atoms: C_4  and  C_9 
REMARK    4  A    between atoms: C_6  and  N_8 
ROOT
HETATM    1  C   UNL     1       2.341  -0.030   0.309  1.00  0.00     0.117 A 
HETATM    2  C   UNL     1       3.028  -1.244   0.120  1.00  0.00     0.039 A 
HETATM    3  C   UNL     1       4.412  -1.102   0.007  1.00  0.00     0.052 A 
HETATM    4  N   UNL     1       5.005   0.121   0.105  1.00  0.00    -0.222 NA
HETATM    5  C   UNL     1       4.245   1.196   0.292  1.00  0.00     0.201 A 
HETATM    6  N   UNL     1       2.924   1.175   0.376  1.00  0.00    -0.206 NA
ENDROOT
BRANCH   2   7
HETATM    7  C   UNL     1       2.277  -2.512   0.044  1.00  0.00    -0.021 A 
HETATM    8  C   UNL     1       2.406  -3.503   1.031  1.00  0.00     0.014 A 
HETATM    9  C   UNL     1       1.687  -4.702   0.948  1.00  0.00     0.024 A 
HETATM   10  C   UNL     1       0.786  -4.900  -0.095  1.00  0.00     0.034 A 
HETATM   11  C   UNL     1       0.599  -3.913  -1.056  1.00  0.00     0.024 A 
HETATM   12 CL   UNL     1      -0.107  -6.366  -0.189  1.00  0.00    -0.084 Cl
HETATM   13  C   UNL     1       1.347  -2.733  -0.991  1.00  0.00     0.014 A 
ENDBRANCH   2   7
BRANCH   1  14
HETATM   14  N   UNL     1       0.943   0.025   0.396  1.00  0.00    -0.286 NA
HETATM   15  H   UNL     1       0.587  -0.614   1.099  1.00  0.00     0.125 HD
HETATM   16  H   UNL     1       0.693   0.991   0.592  1.00  0.00     0.125 HD
ENDBRANCH   1  14
BRANCH   3  17
HETATM   17  C   UNL     1       5.458  -2.155  -0.277  1.00  0.00     0.056 C 
HETATM   18  C   UNL     1       5.143  -3.617  -0.531  1.00  0.00     0.011 C 
ENDBRANCH   3  17
BRANCH   5  19
HETATM   19  N   UNL     1       4.878   2.421   0.338  1.00  0.00    -0.271 NA
HETATM   20  H   UNL     1       5.768   2.350  -0.136  1.00  0.00     0.127 HD
HETATM   21  H   UNL     1       4.243   3.138   0.017  1.00  0.00     0.127 HD
ENDBRANCH   5  19
TORSDOF 4
