REMARK  6 active torsions:
REMARK  status: ('A' for Active; 'I' for Inactive)
REMARK    1  A    between atoms: C_6  and  O_10 
REMARK    2  A    between atoms: C_8  and  O_9 
REMARK    3  A    between atoms: C_12  and  C_15 
REMARK    4  A    between atoms: C_13  and  O_14 
REMARK    5  A    between atoms: C_17  and  O_22 
REMARK    6  A    between atoms: C_18  and  O_21 
ROOT
HETATM    1  O   UNL     1       0.883  -0.054  -0.023  1.00  0.00    -0.284 OA
HETATM    2  C   UNL     1       2.112  -0.088  -0.015  1.00  0.00     0.223 A 
HETATM    3  C   UNL     1       2.918   1.127   0.015  1.00  0.00     0.084 A 
HETATM    4  C   UNL     1       4.302   0.992   0.044  1.00  0.00     0.096 A 
HETATM    5  C   UNL     1       5.110   2.132   0.041  1.00  0.00     0.075 A 
HETATM    6  C   UNL     1       4.513   3.392   0.010  1.00  0.00     0.071 A 
HETATM    7  C   UNL     1       3.128   3.531  -0.011  1.00  0.00     0.074 A 
HETATM    8  C   UNL     1       2.328   2.394  -0.008  1.00  0.00     0.085 A 
HETATM    9  O   UNL     1       4.932  -0.230   0.076  1.00  0.00    -0.306 OA
HETATM   10  C   UNL     1       4.171  -1.401  -0.007  1.00  0.00     0.123 A 
HETATM   11  C   UNL     1       2.822  -1.386  -0.066  1.00  0.00     0.152 A 
ENDROOT
BRANCH  10  12
HETATM   12  C   UNL     1       5.008  -2.642  -0.065  1.00  0.00     0.004 A 
HETATM   13  C   UNL     1       6.360  -2.567  -0.462  1.00  0.00     0.053 A 
HETATM   14  C   UNL     1       7.136  -3.724  -0.558  1.00  0.00     0.099 A 
HETATM   15  C   UNL     1       6.590  -4.968  -0.269  1.00  0.00     0.098 A 
HETATM   16  C   UNL     1       5.281  -5.074   0.156  1.00  0.00     0.040 A 
HETATM   17  C   UNL     1       4.505  -3.915   0.275  1.00  0.00     0.017 A 
BRANCH  14  18
HETATM   18  O   UNL     1       8.450  -3.687  -0.939  1.00  0.00    -0.358 OA
HETATM   19  H   UNL     1       8.716  -2.756  -1.029  1.00  0.00     0.217 HD
ENDBRANCH  14  18
BRANCH  15  20
HETATM   20  O   UNL     1       7.343  -6.099  -0.400  1.00  0.00    -0.358 OA
HETATM   21  H   UNL     1       8.208  -5.783  -0.728  1.00  0.00     0.217 HD
ENDBRANCH  15  20
ENDBRANCH  10  12
BRANCH  11  22
HETATM   22  O   UNL     1       2.016  -2.501  -0.196  1.00  0.00    -0.355 OA
HETATM   23  H   UNL     1       1.096  -2.160  -0.205  1.00  0.00     0.218 HD
ENDBRANCH  11  22
BRANCH   8  24
HETATM   24  O   UNL     1       0.974   2.588  -0.033  1.00  0.00    -0.360 OA
HETATM   25  H   UNL     1       0.531   1.711  -0.025  1.00  0.00     0.217 HD
ENDBRANCH   8  24
BRANCH   6  26
HETATM   26  O   UNL     1       5.258   4.534  -0.005  1.00  0.00    -0.361 OA
HETATM   27  H   UNL     1       6.202   4.307   0.004  1.00  0.00     0.217 HD
ENDBRANCH   6  26
TORSDOF 6
