REMARK  10 active torsions:
REMARK  status: ('A' for Active; 'I' for Inactive)
REMARK    1  A    between atoms: C_4  and  C_17 
REMARK    2  A    between atoms: C_11  and  O_18 
REMARK    3  A    between atoms: C_12  and  O_18 
REMARK    4  A    between atoms: C_12  and  C_15 
REMARK    5  A    between atoms: C_14  and  O_34 
REMARK    6  A    between atoms: C_16  and  O_32 
REMARK    7  A    between atoms: C_17  and  O_35 
REMARK    8  A    between atoms: C_20  and  O_36 
REMARK    9  A    between atoms: C_21  and  O_37 
REMARK   10  A    between atoms: C_31  and  O_38 
ROOT
HETATM    1  C   UNL     1       0.229   0.106  -0.267  1.00  0.00     0.039 C 
HETATM    2  N   UNL     1       1.057   1.156  -0.013  1.00  0.00    -0.357 N 
HETATM    3  C   UNL     1       0.944  -1.060  -0.179  1.00  0.00    -0.019 C 
HETATM    4  C   UNL     1      -3.418   0.692  -3.818  1.00  0.00     0.121 C 
HETATM    5  C   UNL     1      -2.780   0.865  -2.447  1.00  0.00     0.010 C 
HETATM    6  C   UNL     1      -1.193   0.220  -0.632  1.00  0.00     0.130 C 
HETATM    7  N   UNL     1      -1.967  -0.991  -0.295  1.00  0.00    -0.402 N 
HETATM    8  C   UNL     1       2.355   0.704  -0.016  1.00  0.00     0.046 A 
HETATM    9  C   UNL     1       2.312  -0.691  -0.124  1.00  0.00    -0.001 A 
HETATM   10  C   UNL     1      -3.730   0.133  -1.486  1.00  0.00     0.011 C 
HETATM   11  C   UNL     1      -5.467   1.595  -2.534  1.00  0.00     0.162 C 
HETATM   12  C   UNL     1      -1.325   0.528  -2.147  1.00  0.00     0.037 C 
HETATM   13  C   UNL     1      -4.524   1.785  -3.847  1.00  0.00     0.164 C 
HETATM   14  C   UNL     1      -3.155  -1.235  -1.113  1.00  0.00     0.122 C 
HETATM   15  C   UNL     1      -5.213   0.206  -1.910  1.00  0.00     0.042 C 
HETATM   16  C   UNL     1       0.223  -2.355  -0.282  1.00  0.00     0.061 C 
HETATM   17  C   UNL     1       3.546   1.437   0.034  1.00  0.00     0.067 A 
HETATM   18  C   UNL     1       3.528  -1.390  -0.200  1.00  0.00     0.017 A 
HETATM   19  C   UNL     1      -1.248  -2.175   0.193  1.00  0.00     0.122 C 
HETATM   20  C   UNL     1       4.743   0.729  -0.094  1.00  0.00     0.070 A 
HETATM   21  C   UNL     1       4.728  -0.664  -0.207  1.00  0.00     0.038 A 
HETATM   22  H   UNL     1       0.784   2.129   0.038  1.00  0.00     0.166 HD
ENDROOT
BRANCH  11  23
HETATM   23  O   UNL     1      -5.131   2.703  -1.585  1.00  0.00    -0.309 OA
BRANCH  23  24
HETATM   24  C   UNL     1      -5.127   2.891  -0.235  1.00  0.00     0.294 C 
HETATM   25  O   UNL     1      -4.636   3.905   0.251  1.00  0.00    -0.259 OA
BRANCH  24  26
HETATM   26  C   UNL     1      -5.721   1.913   0.707  1.00  0.00     0.045 C 
HETATM   27  C   UNL     1      -7.023   2.089   1.152  1.00  0.00     0.057 C 
HETATM   28  C   UNL     1      -7.571   1.154   2.043  1.00  0.00     0.105 C 
HETATM   29  C   UNL     1      -6.911  -0.056   2.310  1.00  0.00     0.135 C 
HETATM   30  C   UNL     1      -5.578  -0.177   1.929  1.00  0.00     0.105 C 
HETATM   31  C   UNL     1      -4.956   0.902   1.302  1.00  0.00     0.057 C 
BRANCH  28  32
HETATM   32  O   UNL     1      -8.748   1.443   2.684  1.00  0.00    -0.353 OA
HETATM   33  C   UNL     1      -8.578   2.611   3.506  1.00  0.00     0.210 C 
ENDBRANCH  28  32
BRANCH  29  34
HETATM   34  O   UNL     1      -7.543  -1.139   2.853  1.00  0.00    -0.351 OA
HETATM   35  C   UNL     1      -7.884  -0.975   4.221  1.00  0.00     0.210 C 
ENDBRANCH  29  34
BRANCH  30  36
HETATM   36  O   UNL     1      -4.771  -1.259   2.158  1.00  0.00    -0.353 OA
HETATM   37  C   UNL     1      -5.344  -2.524   1.822  1.00  0.00     0.210 C 
ENDBRANCH  30  36
ENDBRANCH  24  26
ENDBRANCH  23  24
ENDBRANCH  11  23
BRANCH  13  38
HETATM   38  O   UNL     1      -5.286   1.669  -5.053  1.00  0.00    -0.387 OA
HETATM   39  C   UNL     1      -4.769   2.523  -6.082  1.00  0.00     0.202 C 
ENDBRANCH  13  38
BRANCH   4  40
HETATM   40  C   UNL     1      -2.489   0.465  -4.992  1.00  0.00     0.265 C 
HETATM   41  O   UNL     1      -1.498   1.131  -5.213  1.00  0.00    -0.265 OA
BRANCH  40  42
HETATM   42  O   UNL     1      -2.903  -0.519  -5.852  1.00  0.00    -0.326 OA
HETATM   43  C   UNL     1      -3.052  -1.876  -5.386  1.00  0.00     0.213 C 
ENDBRANCH  40  42
ENDBRANCH   4  40
BRANCH  20  44
HETATM   44  O   UNL     1       5.990   1.296  -0.139  1.00  0.00    -0.356 OA
HETATM   45  C   UNL     1       6.048   2.716  -0.062  1.00  0.00     0.210 C 
ENDBRANCH  20  44
TORSDOF 10
