REMARK  2 active torsions:
REMARK  status: ('A' for Active; 'I' for Inactive)
REMARK    1  A    between atoms: O_1  and  C_2 
REMARK    2  A    between atoms: C_4  and  O_8 
ROOT
HETATM    1  C   UNL     1       2.490   0.007  -0.048  1.00  0.00     0.068 A 
HETATM    2  C   UNL     1       3.155   1.227  -0.137  1.00  0.00     0.072 A 
HETATM    3  C   UNL     1       4.542   1.226  -0.269  1.00  0.00     0.068 A 
HETATM    4  C   UNL     1       5.257   0.032  -0.311  1.00  0.00     0.037 A 
HETATM    5  C   UNL     1       4.579  -1.183  -0.221  1.00  0.00     0.005 A 
HETATM    6  C   UNL     1       3.190  -1.196  -0.088  1.00  0.00     0.037 A 
ENDROOT
BRANCH   1   7
HETATM    7  O   UNL     1       1.133  -0.058   0.082  1.00  0.00    -0.361 OA
HETATM    8  H   UNL     1       0.775   0.844   0.093  1.00  0.00     0.217 HD
ENDBRANCH   1   7
BRANCH   3   9
HETATM    9  O   UNL     1       5.249   2.389  -0.362  1.00  0.00    -0.361 OA
HETATM   10  H   UNL     1       4.632   3.137  -0.322  1.00  0.00     0.217 HD
ENDBRANCH   3   9
TORSDOF 2
