REMARK  10 active torsions:
REMARK  status: ('A' for Active; 'I' for Inactive)
REMARK    1  A    between atoms: C_3  and  C_20 
REMARK    2  A    between atoms: C_10  and  O_39 
REMARK    3  A    between atoms: C_11  and  O_40 
REMARK    4  A    between atoms: C_12  and  O_41 
REMARK    5  A    between atoms: C_15  and  O_55 
REMARK    6  A    between atoms: C_19  and  O_44 
REMARK    7  A    between atoms: N_22  and  N_24 
REMARK    8  A    between atoms: C_23  and  O_45 
REMARK    9  A    between atoms: C_30  and  O_49 
REMARK   10  A    between atoms: O_55  and  C_56 
ROOT
HETATM    1  C   UNL     1      -1.198  -0.871   0.187  1.00  0.00     0.063 C 
HETATM    2  C   UNL     1       1.002  -1.368   3.649  1.00  0.00     0.069 C 
HETATM    3  C   UNL     1       1.006  -2.479   2.796  1.00  0.00     0.114 C 
HETATM    4  C   UNL     1      -1.711   0.384  -0.118  1.00  0.00     0.096 C 
HETATM    5  C   UNL     1       0.325   0.069   1.749  1.00  0.00     0.047 C 
HETATM    6  C   UNL     1      -0.208  -1.089   1.151  1.00  0.00     0.027 C 
HETATM    7  C   UNL     1      -3.476  -1.003  -0.421  1.00  0.00     0.237 C 
HETATM    8  N   UNL     1       0.265  -1.248   5.004  1.00  0.00    -0.323 N 
HETATM    9  O   UNL     1      -2.990   0.360  -0.646  1.00  0.00    -0.305 OA
HETATM   10  C   UNL     1       1.041  -0.130   2.963  1.00  0.00     0.103 C 
HETATM   11  C   UNL     1       0.254  -2.352   1.608  1.00  0.00     0.077 C 
HETATM   12  C   UNL     1      -0.016   1.359   1.194  1.00  0.00     0.088 C 
HETATM   13  C   UNL     1      -2.198  -1.803  -0.270  1.00  0.00     0.225 C 
HETATM   14  C   UNL     1      -1.097   1.545   0.316  1.00  0.00     0.007 C 
HETATM   15  C   UNL     1      -2.551   1.499   5.645  1.00  0.00     0.144 C 
HETATM   16  C   UNL     1      -0.764  -2.042   5.560  1.00  0.00     0.251 C 
HETATM   17  C   UNL     1      -2.404   3.063   5.766  1.00  0.00     0.041 C 
HETATM   18  C   UNL     1      -2.023   4.392   8.195  1.00  0.00     0.040 C 
HETATM   19  C   UNL     1      -2.541   3.307   7.273  1.00  0.00     0.130 C 
HETATM   20  C   UNL     1      -3.365   0.982   4.390  1.00  0.00     0.044 C 
HETATM   21  C   UNL     1      -1.765   3.768   9.638  1.00  0.00     0.131 C 
HETATM   22  C   UNL     1      -1.618  -1.812   7.096  1.00  0.00     0.006 C 
HETATM   23  O   UNL     1      -4.349  -1.159   0.725  1.00  0.00    -0.319 OA
HETATM   24  C   UNL     1      -3.880  -0.735   1.941  1.00  0.00     0.137 C 
HETATM   25  C   UNL     1      -4.399  -1.066   3.132  1.00  0.00     0.029 C 
HETATM   26  C   UNL     1      -3.936  -0.502   4.483  1.00  0.00     0.151 C 
HETATM   27  C   UNL     1      -2.710   0.305   8.611  1.00  0.00    -0.003 C 
HETATM   28  O   UNL     1      -1.997  -2.992  -0.455  1.00  0.00    -0.286 OA
HETATM   29  C   UNL     1      -2.236  -1.055   8.108  1.00  0.00     0.012 C 
HETATM   30  O   UNL     1      -1.094  -3.054   4.922  1.00  0.00    -0.268 OA
HETATM   31  C   UNL     1      -2.651   2.541  10.206  1.00  0.00     0.033 C 
HETATM   32  C   UNL     1      -2.302   1.056   9.682  1.00  0.00    -0.020 C 
HETATM   33  C   UNL     1      -4.224  -1.448  -1.668  1.00  0.00     0.089 C 
HETATM   34  C   UNL     1      -1.659   2.892  -0.038  1.00  0.00     0.054 C 
HETATM   35  C   UNL     1      -0.743   5.071   7.709  1.00  0.00     0.015 C 
HETATM   36  C   UNL     1      -1.939  -3.309   7.431  1.00  0.00     0.054 C 
HETATM   37  C   UNL     1      -4.104   2.987  10.472  1.00  0.00     0.017 C 
HETATM   38  C   UNL     1      -1.216   3.583   4.979  1.00  0.00     0.015 C 
HETATM   39  C   UNL     1      -4.606   1.886   4.152  1.00  0.00     0.015 C 
HETATM   40  H   UNL     1       0.367  -0.301   5.327  1.00  0.00     0.169 HD
ENDROOT
BRANCH   3  41
HETATM   41  C   UNL     1       2.293  -3.232   2.358  1.00  0.00     0.136 C 
HETATM   42  N   UNL     1       3.350  -2.704   1.777  1.00  0.00    -0.192 NA
BRANCH  42  43
HETATM   43  N   UNL     1       4.203  -3.579   1.062  1.00  0.00    -0.303 N 
HETATM   44  C   UNL     1       5.332  -2.981   0.284  1.00  0.00     0.174 C 
HETATM   45  C   UNL     1       6.017  -3.934  -0.759  1.00  0.00     0.293 C 
HETATM   46  N   UNL     1       6.267  -5.331  -0.359  1.00  0.00     0.087 N 
HETATM   47  C   UNL     1       5.166  -5.817   0.484  1.00  0.00     0.293 C 
HETATM   48  C   UNL     1       7.581  -5.544   0.233  1.00  0.00     0.310 C 
HETATM   49  C   UNL     1       4.691  -4.859   1.611  1.00  0.00     0.174 C 
ENDBRANCH  42  43
ENDBRANCH   3  41
BRANCH  11  50
HETATM   50  O   UNL     1       0.137  -3.491   0.840  1.00  0.00    -0.362 OA
HETATM   51  H   UNL     1      -0.579  -3.413   0.177  1.00  0.00     0.217 HD
ENDBRANCH  11  50
BRANCH  10  52
HETATM   52  O   UNL     1       1.605   0.932   3.607  1.00  0.00    -0.358 OA
HETATM   53  H   UNL     1       1.509   1.724   3.042  1.00  0.00     0.217 HD
ENDBRANCH  10  52
BRANCH  12  54
HETATM   54  O   UNL     1       0.684   2.456   1.646  1.00  0.00    -0.359 OA
HETATM   55  H   UNL     1       0.705   3.112   0.924  1.00  0.00     0.217 HD
ENDBRANCH  12  54
BRANCH  21  56
HETATM   56  O   UNL     1      -1.742   4.837  10.605  1.00  0.00    -0.394 OA
HETATM   57  H   UNL     1      -2.250   5.592  10.263  1.00  0.00     0.210 HD
ENDBRANCH  21  56
BRANCH  26  58
HETATM   58  O   UNL     1      -5.135  -0.476   5.289  1.00  0.00    -0.386 OA
HETATM   59  C   UNL     1      -5.239  -1.462   6.303  1.00  0.00     0.202 C 
ENDBRANCH  26  58
BRANCH  19  60
HETATM   60  O   UNL     1      -3.951   3.192   7.522  1.00  0.00    -0.395 OA
HETATM   61  H   UNL     1      -4.390   3.996   7.193  1.00  0.00     0.210 HD
ENDBRANCH  19  60
BRANCH  15  62
HETATM   62  O   UNL     1      -1.262   0.795   5.935  1.00  0.00    -0.315 OA
BRANCH  62  63
HETATM   63  C   UNL     1      -0.122   1.270   6.542  1.00  0.00     0.255 C 
HETATM   64  O   UNL     1       0.838   1.628   5.868  1.00  0.00    -0.266 OA
HETATM   65  C   UNL     1       0.159   1.028   7.991  1.00  0.00     0.126 C 
ENDBRANCH  62  63
ENDBRANCH  15  62
TORSDOF 10
