REMARK  3 active torsions:
REMARK  status: ('A' for Active; 'I' for Inactive)
REMARK    1  A    between atoms: C_13  and  C_20 
REMARK    2  A    between atoms: C_18  and  O_25 
REMARK    3  A    between atoms: C_19  and  O_26 
ROOT
HETATM    1  C   UNL     1      -1.163   0.278   0.505  1.00  0.00     0.092 A 
HETATM    2  C   UNL     1       0.360  -1.242   1.716  1.00  0.00     0.173 C 
HETATM    3  C   UNL     1       1.450  -0.222   1.486  1.00  0.00     0.128 C 
HETATM    4  C   UNL     1      -0.941  -0.975   1.073  1.00  0.00     0.045 A 
HETATM    5  C   UNL     1      -2.354   0.486  -0.162  1.00  0.00     0.012 A 
HETATM    6  C   UNL     1       2.272  -0.460   0.237  1.00  0.00    -0.008 C 
HETATM    7  O   UNL     1      -0.283   1.311   0.543  1.00  0.00    -0.341 OA
HETATM    8  C   UNL     1       0.802   1.166   1.474  1.00  0.00     0.169 C 
HETATM    9  C   UNL     1       2.612   0.621  -0.570  1.00  0.00     0.079 C 
HETATM   10  O   UNL     1      -4.450  -0.130  -0.898  1.00  0.00    -0.341 OA
HETATM   11  C   UNL     1      -3.314  -0.512  -0.230  1.00  0.00     0.079 A 
HETATM   12  C   UNL     1      -2.826   1.657  -0.938  1.00  0.00     0.081 C 
HETATM   13  C   UNL     1      -4.330   1.323  -0.986  1.00  0.00     0.161 C 
HETATM   14  C   UNL     1       2.771  -1.729  -0.116  1.00  0.00     0.050 C 
HETATM   15  O   UNL     1       2.326   1.928  -0.281  1.00  0.00    -0.348 OA
HETATM   16  C   UNL     1       3.287   0.410  -1.768  1.00  0.00     0.077 C 
HETATM   17  C   UNL     1      -1.915  -1.990   0.996  1.00  0.00     0.021 A 
HETATM   18  C   UNL     1       3.525  -1.935  -1.296  1.00  0.00     0.102 C 
HETATM   19  C   UNL     1       3.750  -0.857  -2.158  1.00  0.00     0.104 C 
HETATM   20  C   UNL     1       1.864   2.175   1.052  1.00  0.00     0.209 C 
HETATM   21  O   UNL     1       0.536  -2.263   2.365  1.00  0.00    -0.291 OA
HETATM   22  C   UNL     1      -3.122  -1.756   0.332  1.00  0.00     0.038 A 
ENDROOT
BRANCH  13  23
HETATM   23  C   UNL     1      -5.240   1.930   0.082  1.00  0.00    -0.064 C 
HETATM   24  C   UNL     1      -4.840   2.704   1.106  1.00  0.00     0.016 C 
HETATM   25  C   UNL     1      -6.702   1.593  -0.053  1.00  0.00     0.045 C 
ENDBRANCH  13  23
BRANCH  18  26
HETATM   26  O   UNL     1       4.145  -3.155  -1.359  1.00  0.00    -0.353 OA
HETATM   27  C   UNL     1       3.732  -4.025  -2.405  1.00  0.00     0.210 C 
ENDBRANCH  18  26
BRANCH  19  28
HETATM   28  O   UNL     1       4.396  -0.759  -3.353  1.00  0.00    -0.353 OA
HETATM   29  C   UNL     1       5.168  -1.810  -3.883  1.00  0.00     0.210 C 
ENDBRANCH  19  28
TORSDOF 3
