REMARK  8 active torsions:
REMARK  status: ('A' for Active; 'I' for Inactive)
REMARK    1  A    between atoms: C_5  and  N_6 
REMARK    2  A    between atoms: N_6  and  S_7 
REMARK    3  A    between atoms: S_7  and  C_10 
REMARK    4  A    between atoms: C_13  and  N_14 
REMARK    5  A    between atoms: N_15  and  C_16 
REMARK    6  A    between atoms: C_19  and  O_20 
REMARK    7  A    between atoms: C_21  and  C_22 
REMARK    8  A    between atoms: C_22  and  O_23 
ROOT
HETATM    1  C   UNL     1       5.550  -0.814  -0.463  1.00  0.00     0.080 A 
HETATM    2  C   UNL     1       5.943   0.522  -0.500  1.00  0.00     0.027 A 
HETATM    3  C   UNL     1       7.276   0.833  -0.818  1.00  0.00     0.035 A 
HETATM    4  C   UNL     1       8.227  -0.167  -1.087  1.00  0.00     0.079 A 
HETATM    5  C   UNL     1       7.814  -1.504  -0.997  1.00  0.00     0.035 A 
HETATM    6  C   UNL     1       6.490  -1.827  -0.691  1.00  0.00     0.027 A 
ENDROOT
BRANCH   4   7
HETATM    7  N   UNL     1       9.522   0.248  -1.480  1.00  0.00    -0.150 NA
HETATM    8  N   UNL     1      10.306  -0.702  -1.683  1.00  0.00    -0.150 NA
BRANCH   8   9
HETATM    9  C   UNL     1      11.541  -0.317  -2.250  1.00  0.00     0.080 A 
HETATM   10  C   UNL     1      11.960   1.011  -2.427  1.00  0.00     0.036 A 
HETATM   11  C   UNL     1      13.181   1.310  -3.040  1.00  0.00     0.040 A 
HETATM   12  C   UNL     1      14.005   0.276  -3.482  1.00  0.00     0.082 A 
HETATM   13  C   UNL     1      13.627  -1.060  -3.305  1.00  0.00     0.073 A 
HETATM   14  C   UNL     1      12.396  -1.339  -2.686  1.00  0.00     0.054 A 
BRANCH  12  15
HETATM   15  O   UNL     1      15.191   0.582  -4.099  1.00  0.00    -0.360 OA
HETATM   16  H   UNL     1      15.286   1.554  -4.134  1.00  0.00     0.217 HD
ENDBRANCH  12  15
BRANCH  13  17
HETATM   17  C   UNL     1      14.449  -2.227  -3.742  1.00  0.00     0.179 C 
HETATM   18  O   UNL     1      14.113  -3.382  -3.527  1.00  0.00    -0.646 OA
BRANCH  17  19
HETATM   19  O   UNL     1      15.586  -1.921  -4.402  1.00  0.00    -0.773 OA
HETATM   20  H   UNL     1      15.723  -0.951  -4.482  1.00  0.00     0.167 HD
ENDBRANCH  17  19
ENDBRANCH  13  17
ENDBRANCH   8   9
ENDBRANCH   4   7
BRANCH   1  21
HETATM   21  S   UNL     1       3.873  -1.348  -0.204  1.00  0.00     0.264 S 
HETATM   22  O   UNL     1       3.863  -2.077   1.046  1.00  0.00    -0.200 OA
HETATM   23  O   UNL     1       3.473  -1.980  -1.444  1.00  0.00    -0.200 OA
BRANCH  21  24
HETATM   24  N   UNL     1       2.941   0.021  -0.008  1.00  0.00    -0.264 N 
HETATM   25  H   UNL     1       3.208   0.857  -0.514  1.00  0.00     0.180 HD
BRANCH  24  26
HETATM   26  C   UNL     1       1.531  -0.108  -0.035  1.00  0.00     0.136 A 
HETATM   27  C   UNL     1       0.810  -1.284   0.120  1.00  0.00     0.051 A 
HETATM   28  C   UNL     1      -0.582  -1.216   0.114  1.00  0.00     0.005 A 
HETATM   29  C   UNL     1      -1.202   0.021   0.010  1.00  0.00     0.019 A 
HETATM   30  C   UNL     1      -0.398   1.144  -0.094  1.00  0.00     0.119 A 
HETATM   31  N   UNL     1       0.955   1.107  -0.124  1.00  0.00    -0.243 NA
ENDBRANCH  24  26
ENDBRANCH  21  24
ENDBRANCH   1  21
TORSDOF 8
