REMARK  2 active torsions:
REMARK  status: ('A' for Active; 'I' for Inactive)
REMARK    1  A    between atoms: C_2  and  C_3 
REMARK    2  A    between atoms: C_3  and  C_4 
ROOT
HETATM    1  C   UNL     1       4.698  -0.683  -0.460  1.00  0.00    -0.052 A 
HETATM    2  C   UNL     1       5.622  -1.749  -0.327  1.00  0.00     0.010 A 
HETATM    3  C   UNL     1       6.996  -1.510  -0.219  1.00  0.00     0.040 A 
HETATM    4  C   UNL     1       7.422  -0.202  -0.248  1.00  0.00     0.105 A 
HETATM    5  C   UNL     1       6.540   0.841  -0.399  1.00  0.00     0.105 A 
HETATM    6  C   UNL     1       5.181   0.636  -0.523  1.00  0.00     0.047 A 
HETATM    7  O   UNL     1       7.164   2.050  -0.404  1.00  0.00    -0.323 OA
HETATM    8  C   UNL     1       8.535   1.647  -0.199  1.00  0.00     0.352 A 
HETATM    9  O   UNL     1       8.711   0.217  -0.140  1.00  0.00    -0.323 OA
ENDROOT
BRANCH   1  10
HETATM   10  C   UNL     1       3.221  -0.999  -0.590  1.00  0.00     0.065 C 
BRANCH  10  11
HETATM   11  C   UNL     1       2.311  -0.107   0.211  1.00  0.00    -0.032 C 
HETATM   12  C   UNL     1       1.000   0.019  -0.037  1.00  0.00     0.007 C 
ENDBRANCH  10  11
ENDBRANCH   1  10
TORSDOF 2
