REMARK  4 active torsions:
REMARK  status: ('A' for Active; 'I' for Inactive)
REMARK    1  A    between atoms: C_4  and  N_11 
REMARK    2  A    between atoms: C_6  and  N_8 
REMARK    3  A    between atoms: N_8  and  C_9 
REMARK    4  A    between atoms: N_11  and  C_12 
ROOT
HETATM    1 CL   UNL     1       1.286  -0.069  -0.194  1.00  0.00    -0.041 Cl
HETATM    2  C   UNL     1       2.996  -0.071  -0.142  1.00  0.00     0.228 A 
HETATM    3  N   UNL     1       3.576  -1.257  -0.219  1.00  0.00    -0.187 NA
HETATM    4  C   UNL     1       4.892  -1.204  -0.136  1.00  0.00     0.207 A 
HETATM    5  N   UNL     1       5.580  -0.080   0.044  1.00  0.00    -0.187 NA
HETATM    6  C   UNL     1       4.884   1.053   0.078  1.00  0.00     0.207 A 
HETATM    7  N   UNL     1       3.571   1.115  -0.023  1.00  0.00    -0.187 NA
ENDROOT
BRANCH   4   8
HETATM    8  N   UNL     1       5.650  -2.354  -0.258  1.00  0.00    -0.261 NA
HETATM    9  H   UNL     1       6.537  -2.211   0.209  1.00  0.00     0.130 HD
BRANCH   8  10
HETATM   10  C   UNL     1       4.979  -3.624  -0.060  1.00  0.00     0.091 C 
HETATM   11  C   UNL     1       6.007  -4.745  -0.059  1.00  0.00     0.021 C 
ENDBRANCH   8  10
ENDBRANCH   4   8
BRANCH   6  12
HETATM   12  N   UNL     1       5.524   2.273   0.221  1.00  0.00    -0.261 NA
HETATM   13  H   UNL     1       4.940   2.988  -0.198  1.00  0.00     0.130 HD
BRANCH  12  14
HETATM   14  C   UNL     1       6.943   2.322  -0.063  1.00  0.00     0.091 C 
HETATM   15  C   UNL     1       7.408   3.772  -0.063  1.00  0.00     0.021 C 
ENDBRANCH  12  14
ENDBRANCH   6  12
TORSDOF 4
