REMARK  3 active torsions:
REMARK  status: ('A' for Active; 'I' for Inactive)
REMARK    1  A    between atoms: C_2  and  O_3 
REMARK    2  A    between atoms: C_2  and  C_4 
REMARK    3  A    between atoms: C_5  and  C_6 
ROOT
HETATM    1  C   UNL     1       3.052   0.367  -1.092  1.00  0.00     0.081 C 
HETATM    2  C   UNL     1       4.392   0.392  -1.159  1.00  0.00     0.006 C 
ENDROOT
BRANCH   1   3
HETATM    3  C   UNL     1       2.197  -0.065   0.032  1.00  0.00     0.165 C 
HETATM    4  O   UNL     1       0.979  -0.031  -0.056  1.00  0.00    -0.647 OA
BRANCH   3   5
HETATM    5  O   UNL     1       2.830  -0.489   1.138  1.00  0.00    -0.773 OA
HETATM    6  H   UNL     1       3.799  -0.477   1.107  1.00  0.00     0.167 HD
ENDBRANCH   3   5
ENDBRANCH   1   3
BRANCH   2   7
HETATM    7  C   UNL     1       5.094   0.846  -2.341  1.00  0.00    -0.004 C 
HETATM    8  C   UNL     1       6.433   0.877  -2.424  1.00  0.00    -0.031 C 
HETATM    9  C   UNL     1       7.179   1.342  -3.633  1.00  0.00     0.036 C 
ENDBRANCH   2   7
TORSDOF 3
