REMARK  1 active torsions:
REMARK  status: ('A' for Active; 'I' for Inactive)
REMARK    1  A    between atoms: C_2  and  C_3 
ROOT
HETATM    1  C   UNL     1       1.611  -0.749   1.212  1.00  0.00    -0.027 A 
HETATM    2  C   UNL     1       2.407   0.151   1.942  1.00  0.00     0.010 A 
HETATM    3  C   UNL     1       3.105  -0.255   3.083  1.00  0.00     0.001 A 
HETATM    4  C   UNL     1       3.028  -1.576   3.513  1.00  0.00     0.000 A 
HETATM    5  C   UNL     1       2.251  -2.489   2.805  1.00  0.00     0.001 A 
HETATM    6  C   UNL     1       1.552  -2.076   1.668  1.00  0.00     0.010 A 
ENDROOT
BRANCH   1   7
HETATM    7  C   UNL     1       0.875  -0.323  -0.030  1.00  0.00     0.178 A 
HETATM    8  C   UNL     1      -0.107   0.825   0.009  1.00  0.00     0.205 A 
HETATM    9  O   UNL     1      -0.550  -0.533  -0.058  1.00  0.00    -0.376 OA
ENDBRANCH   1   7
TORSDOF 1
