REMARK  4 active torsions:
REMARK  status: ('A' for Active; 'I' for Inactive)
REMARK    1  A    between atoms: O_1  and  C_2 
REMARK    2  A    between atoms: C_3  and  C_16 
REMARK    3  A    between atoms: C_5  and  C_12 
REMARK    4  A    between atoms: C_7  and  C_8 
ROOT
HETATM    1  C   UNL     1       2.240  -0.054   0.066  1.00  0.00     0.079 A 
HETATM    2  C   UNL     1       2.934  -1.283   0.063  1.00  0.00    -0.016 A 
HETATM    3  C   UNL     1       4.349  -1.217   0.054  1.00  0.00     0.018 A 
HETATM    4  C   UNL     1       5.062  -0.012   0.057  1.00  0.00    -0.049 A 
HETATM    5  C   UNL     1       4.308   1.171   0.069  1.00  0.00     0.018 A 
HETATM    6  C   UNL     1       2.894   1.197   0.074  1.00  0.00    -0.016 A 
ENDROOT
BRANCH   2   7
HETATM    7  C   UNL     1       2.288  -2.695   0.081  1.00  0.00    -0.021 C 
HETATM    8  C   UNL     1       2.736  -3.475  -1.180  1.00  0.00     0.019 C 
HETATM    9  C   UNL     1       2.763  -3.458   1.343  1.00  0.00     0.019 C 
HETATM   10  C   UNL     1       0.745  -2.761   0.101  1.00  0.00     0.019 C 
ENDBRANCH   2   7
BRANCH   1  11
HETATM   11  O   UNL     1       0.878  -0.071   0.042  1.00  0.00    -0.360 OA
HETATM   12  H   UNL     1       0.644  -0.183  -0.896  1.00  0.00     0.217 HD
ENDBRANCH   1  11
BRANCH   6  13
HETATM   13  C   UNL     1       2.205   2.586   0.085  1.00  0.00    -0.021 C 
HETATM   14  C   UNL     1       2.644   3.366   1.349  1.00  0.00     0.019 C 
HETATM   15  C   UNL     1       2.638   3.378  -1.173  1.00  0.00     0.019 C 
HETATM   16  C   UNL     1       0.660   2.599   0.089  1.00  0.00     0.019 C 
ENDBRANCH   6  13
BRANCH   4  17
HETATM   17  C   UNL     1       6.601   0.049   0.053  1.00  0.00    -0.024 C 
HETATM   18  C   UNL     1       7.087   0.797  -1.207  1.00  0.00     0.019 C 
HETATM   19  C   UNL     1       7.094   0.796   1.312  1.00  0.00     0.019 C 
HETATM   20  C   UNL     1       7.285  -1.338   0.051  1.00  0.00     0.019 C 
ENDBRANCH   4  17
TORSDOF 4
