REMARK  9 active torsions:
REMARK  status: ('A' for Active; 'I' for Inactive)
REMARK    1  A    between atoms: C_2  and  N_3 
REMARK    2  A    between atoms: C_2  and  S_8 
REMARK    3  A    between atoms: N_3  and  C_4 
REMARK    4  A    between atoms: N_3  and  C_6 
REMARK    5  A    between atoms: S_8  and  S_9 
REMARK    6  A    between atoms: S_9  and  C_10 
REMARK    7  A    between atoms: C_10  and  N_12 
REMARK    8  A    between atoms: N_12  and  C_13 
REMARK    9  A    between atoms: N_12  and  C_15 
ROOT
HETATM    1  S   UNL     1       4.782  -0.734   0.774  1.00  0.00    -0.020 SA
ENDROOT
BRANCH   1   2
HETATM    2  C   UNL     1       3.389  -0.047  -0.088  1.00  0.00     0.147 C 
HETATM    3  S   UNL     1       2.102   0.568   0.824  1.00  0.00    -0.052 SA
BRANCH   2   4
HETATM    4  N   UNL     1       3.417  -0.119  -1.517  1.00  0.00    -0.367 N 
BRANCH   4   5
HETATM    5  C   UNL     1       4.529  -0.754  -2.262  1.00  0.00     0.120 C 
HETATM    6  C   UNL     1       5.873  -0.042  -2.155  1.00  0.00     0.026 C 
ENDBRANCH   4   5
BRANCH   4   7
HETATM    7  C   UNL     1       2.130   0.073  -2.230  1.00  0.00     0.120 C 
HETATM    8  C   UNL     1       2.123   0.056  -3.754  1.00  0.00     0.026 C 
ENDBRANCH   4   7
ENDBRANCH   2   4
ENDBRANCH   1   2
BRANCH   1   9
HETATM    9  S   UNL     1       5.686   0.959   1.548  1.00  0.00    -0.020 SA
BRANCH   9  10
HETATM   10  C   UNL     1       6.394   0.340   3.055  1.00  0.00     0.147 C 
HETATM   11  S   UNL     1       5.353  -0.061   4.329  1.00  0.00    -0.052 SA
BRANCH  10  12
HETATM   12  N   UNL     1       7.821   0.281   3.120  1.00  0.00    -0.367 N 
BRANCH  12  13
HETATM   13  C   UNL     1       8.697   0.714   2.005  1.00  0.00     0.120 C 
HETATM   14  C   UNL     1       8.583  -0.106   0.724  1.00  0.00     0.026 C 
ENDBRANCH  12  13
BRANCH  12  15
HETATM   15  C   UNL     1       8.431   0.144   4.466  1.00  0.00     0.120 C 
HETATM   16  C   UNL     1       9.949   0.111   4.592  1.00  0.00     0.026 C 
ENDBRANCH  12  15
ENDBRANCH  10  12
ENDBRANCH   9  10
ENDBRANCH   1   9
TORSDOF 9
