REMARK  1 active torsions:
REMARK  status: ('A' for Active; 'I' for Inactive)
REMARK    1  A    between atoms: C_2  and  C_10 
ROOT
HETATM    1  N   UNL     1      -1.614   1.052   0.002  1.00  0.00    -0.337 N 
HETATM    2  C   UNL     1      -2.363  -0.095   0.002  1.00  0.00     0.158 A 
HETATM    3  N   UNL     1      -1.599  -1.168  -0.000  1.00  0.00    -0.227 NA
HETATM    4  C   UNL     1      -0.310  -0.691  -0.001  1.00  0.00     0.086 A 
HETATM    5  C   UNL     1      -0.290   0.701   0.000  1.00  0.00     0.062 A 
HETATM    6  C   UNL     1       0.886   1.452   0.000  1.00  0.00     0.032 A 
HETATM    7  C   UNL     1       2.088   0.735  -0.001  1.00  0.00     0.002 A 
HETATM    8  C   UNL     1       2.101  -0.663  -0.002  1.00  0.00     0.002 A 
HETATM    9  C   UNL     1       0.905  -1.391  -0.002  1.00  0.00     0.034 A 
HETATM   10  H   UNL     1      -2.001   1.985   0.003  1.00  0.00     0.167 HD
ENDROOT
BRANCH   2  11
HETATM   11  C   UNL     1      -3.850  -0.084   0.005  1.00  0.00     0.109 A 
HETATM   12  C   UNL     1      -4.608  -1.236   0.004  1.00  0.00     0.086 A 
HETATM   13  S   UNL     1      -6.274  -0.830   0.009  1.00  0.00    -0.092 SA
HETATM   14  C   UNL     1      -5.847   0.833   0.011  1.00  0.00     0.166 A 
HETATM   15  N   UNL     1      -4.560   1.107   0.008  1.00  0.00    -0.250 NA
ENDBRANCH   2  11
TORSDOF 1
