REMARK  5 active torsions:
REMARK  status: ('A' for Active; 'I' for Inactive)
REMARK    1  A    between atoms: C_2  and  N_3 
REMARK    2  A    between atoms: C_2  and  S_6 
REMARK    3  A    between atoms: S_6  and  S_7 
REMARK    4  A    between atoms: S_7  and  C_8 
REMARK    5  A    between atoms: C_8  and  N_10 
ROOT
HETATM    1  S   UNL     1       4.571  -1.253   0.124  1.00  0.00    -0.021 SA
ENDROOT
BRANCH   1   2
HETATM    2  C   UNL     1       3.272  -0.081  -0.182  1.00  0.00     0.147 C 
HETATM    3  S   UNL     1       1.814  -0.261   0.645  1.00  0.00    -0.052 SA
BRANCH   2   4
HETATM    4  N   UNL     1       3.535   0.893  -1.162  1.00  0.00    -0.375 N 
HETATM    5  C   UNL     1       4.868   1.208  -1.681  1.00  0.00     0.150 C 
HETATM    6  C   UNL     1       2.483   1.730  -1.742  1.00  0.00     0.150 C 
ENDBRANCH   2   4
ENDBRANCH   1   2
BRANCH   1   7
HETATM    7  S   UNL     1       5.585  -0.333   1.670  1.00  0.00    -0.021 SA
BRANCH   7   8
HETATM    8  C   UNL     1       6.396  -1.715   2.436  1.00  0.00     0.147 C 
HETATM    9  S   UNL     1       5.497  -2.718   3.450  1.00  0.00    -0.052 SA
BRANCH   8  10
HETATM   10  N   UNL     1       7.777  -1.840   2.183  1.00  0.00    -0.375 N 
HETATM   11  C   UNL     1       8.521  -1.009   1.234  1.00  0.00     0.150 C 
HETATM   12  C   UNL     1       8.640  -2.718   2.977  1.00  0.00     0.150 C 
ENDBRANCH   8  10
ENDBRANCH   7   8
ENDBRANCH   1   7
TORSDOF 5
