REMARK  0 active torsions:
REMARK  status: ('A' for Active; 'I' for Inactive)
ROOT
HETATM    1  N   UNL     1       0.919  -1.380   0.002  1.00  0.00    -0.286 N 
HETATM    2  C   UNL     1      -0.248  -0.657   0.001  1.00  0.00     0.167 A 
HETATM    3  N   UNL     1       2.107   0.701   0.005  1.00  0.00    -0.269 N 
HETATM    4  C   UNL     1       2.146  -0.707   0.004  1.00  0.00     0.332 A 
HETATM    5  C   UNL     1      -0.237   0.702   0.001  1.00  0.00     0.149 A 
HETATM    6  C   UNL     1       0.946   1.480   0.003  1.00  0.00     0.281 A 
HETATM    7  N   UNL     1      -1.518  -1.147  -0.001  1.00  0.00    -0.224 NA
HETATM    8  N   UNL     1      -1.548   1.079  -0.000  1.00  0.00    -0.343 N 
HETATM    9  C   UNL     1      -2.287  -0.076  -0.001  1.00  0.00     0.210 A 
HETATM   10  O   UNL     1       3.213  -1.328   0.004  1.00  0.00    -0.246 OA
HETATM   11  O   UNL     1       0.929   2.708   0.003  1.00  0.00    -0.265 OA
HETATM   12  C   UNL     1       0.920  -2.829   0.001  1.00  0.00     0.163 C 
HETATM   13  C   UNL     1       3.361   1.428   0.009  1.00  0.00     0.164 C 
HETATM   14  H   UNL     1      -1.899   2.028  -0.001  1.00  0.00     0.167 HD
ENDROOT
TORSDOF 0
