REMARK  3 active torsions:
REMARK  status: ('A' for Active; 'I' for Inactive)
REMARK    1  A    between atoms: S_2  and  C_4 
REMARK    2  A    between atoms: S_2  and  N_11 
REMARK       I    between atoms: N_11  and  C_12 
REMARK       I    between atoms: C_12  and  N_14 
REMARK    3  A    between atoms: N_14  and  N_15 
ROOT
HETATM    1  N   UNL     1       3.356  -1.073  -1.161  1.00  0.00    -0.231 N 
HETATM    2  C   UNL     1       4.733  -1.180  -1.307  1.00  0.00     0.344 C 
HETATM    3  O   UNL     1       5.521  -0.626  -0.558  1.00  0.00    -0.245 OA
HETATM    4  N   UNL     1       5.078  -1.978  -2.382  1.00  0.00    -0.270 N 
HETATM    5  H   UNL     1       2.714  -1.635  -1.700  1.00  0.00     0.183 HD
HETATM    6  H   UNL     1       4.356  -2.298  -3.014  1.00  0.00     0.185 HD
ENDROOT
BRANCH   1   7
HETATM    7  S   UNL     1       2.597  -0.142  -0.015  1.00  0.00     0.266 S 
HETATM    8  O   UNL     1       1.200  -0.520  -0.089  1.00  0.00    -0.200 OA
HETATM    9  O   UNL     1       2.998   1.236  -0.193  1.00  0.00    -0.200 OA
BRANCH   7  10
HETATM   10  C   UNL     1       3.214  -0.754   1.528  1.00  0.00     0.080 A 
HETATM   11  C   UNL     1       3.919   0.093   2.384  1.00  0.00     0.026 A 
HETATM   12  C   UNL     1       4.397  -0.401   3.599  1.00  0.00     0.008 A 
HETATM   13  C   UNL     1       4.176  -1.737   3.959  1.00  0.00    -0.062 A 
HETATM   14  C   UNL     1       3.456  -2.573   3.094  1.00  0.00     0.008 A 
HETATM   15  C   UNL     1       4.705  -2.282   5.253  1.00  0.00     0.048 C 
HETATM   16  C   UNL     1       2.968  -2.084   1.882  1.00  0.00     0.026 A 
ENDBRANCH   7  10
ENDBRANCH   1   7
BRANCH   4  17
HETATM   17  N   UNL     1       6.434  -2.180  -2.728  1.00  0.00    -0.227 NA
HETATM   18  C   UNL     1       6.881  -1.169  -3.696  1.00  0.00     0.113 C 
HETATM   19  C   UNL     1       8.396  -0.982  -3.662  1.00  0.00     0.016 C 
HETATM   20  C   UNL     1       9.192  -1.926  -4.557  1.00  0.00     0.001 C 
HETATM   21  C   UNL     1       8.681  -3.356  -4.679  1.00  0.00     0.001 C 
HETATM   22  C   UNL     1       8.126  -3.949  -3.389  1.00  0.00     0.016 C 
HETATM   23  C   UNL     1       6.664  -3.570  -3.131  1.00  0.00     0.113 C 
ENDBRANCH   4  17
TORSDOF 3
