REMARK  2 active torsions:
REMARK  status: ('A' for Active; 'I' for Inactive)
REMARK    1  A    between atoms: C_2  and  C_3 
REMARK    2  A    between atoms: C_3  and  O_5 
ROOT
HETATM    1 CL   UNL     1       1.074  -0.061  -0.012  1.00  0.00    -0.072 Cl
HETATM    2  C   UNL     1       2.859   0.005   0.050  1.00  0.00     0.273 C 
HETATM    3 CL   UNL     1       3.393   1.575   0.672  1.00  0.00    -0.072 Cl
HETATM    4 CL   UNL     1       3.446  -1.312   1.105  1.00  0.00    -0.072 Cl
ENDROOT
BRANCH   2   5
HETATM    5  C   UNL     1       3.390  -0.257  -1.371  1.00  0.00     0.197 C 
HETATM    6  O   UNL     1       4.097   0.503  -2.022  1.00  0.00    -0.647 OA
BRANCH   5   7
HETATM    7  O   UNL     1       3.010  -1.457  -1.909  1.00  0.00    -0.773 OA
HETATM    8  H   UNL     1       2.446  -2.005  -1.325  1.00  0.00     0.167 HD
ENDBRANCH   5   7
ENDBRANCH   2   5
TORSDOF 2
