REMARK  1 active torsions:
REMARK  status: ('A' for Active; 'I' for Inactive)
REMARK    1  A    between atoms: O_1  and  C_2 
ROOT
HETATM    1  C   UNL     1       2.342   0.112  -0.012  1.00  0.00     0.109 A 
HETATM    2  C   UNL     1       3.063  -1.087  -0.011  1.00  0.00     0.070 A 
HETATM    3  C   UNL     1       4.457  -1.075  -0.008  1.00  0.00     0.050 A 
HETATM    4  C   UNL     1       5.129   0.147  -0.006  1.00  0.00     0.037 A 
HETATM    5  C   UNL     1       4.423   1.349  -0.007  1.00  0.00     0.050 A 
HETATM    6  C   UNL     1       3.028   1.330  -0.010  1.00  0.00     0.070 A 
HETATM    7 CL   UNL     1       2.186   2.837  -0.011  1.00  0.00    -0.081 Cl
HETATM    8 CL   UNL     1       6.849   0.169  -0.003  1.00  0.00    -0.084 Cl
HETATM    9 CL   UNL     1       2.237  -2.601  -0.013  1.00  0.00    -0.081 Cl
ENDROOT
BRANCH   1  10
HETATM   10  O   UNL     1       0.971   0.103  -0.014  1.00  0.00    -0.357 OA
HETATM   11  H   UNL     1       0.674  -0.826  -0.015  1.00  0.00     0.217 HD
ENDBRANCH   1  10
TORSDOF 1
