REMARK  5 active torsions:
REMARK  status: ('A' for Active; 'I' for Inactive)
REMARK    1  A    between atoms: P_1  and  C_2 
REMARK    2  A    between atoms: P_1  and  O_8 
REMARK    3  A    between atoms: P_1  and  O_9 
REMARK    4  A    between atoms: C_2  and  C_3 
REMARK    5  A    between atoms: C_2  and  O_10 
ROOT
HETATM    1  C   UNL     1       0.974  -0.784  -1.634  1.00  0.00     0.290 C 
ENDROOT
BRANCH   1   2
HETATM    2  P   UNL     1       0.991   0.029   0.095  1.00  0.00     0.360 P 
HETATM    3  O   UNL     1       0.955  -1.017   1.215  1.00  0.00    -0.256 OA
BRANCH   2   4
HETATM    4  O   UNL     1      -0.739   0.029   0.095  1.00  0.00    -0.317 OA
HETATM    5  C   UNL     1      -1.302   0.983   0.980  1.00  0.00     0.212 C 
ENDBRANCH   2   4
BRANCH   2   6
HETATM    6  O   UNL     1       2.721   0.029   0.095  1.00  0.00    -0.317 OA
HETATM    7  C   UNL     1       3.443  -1.130   0.489  1.00  0.00     0.212 C 
ENDBRANCH   2   6
ENDBRANCH   1   2
BRANCH   1   8
HETATM    8  C   UNL     1      -0.005  -1.948  -1.880  1.00  0.00     0.225 C 
HETATM    9 CL   UNL     1      -1.683  -1.394  -2.253  1.00  0.00    -0.080 Cl
HETATM   10 CL   UNL     1       0.529  -2.791  -3.419  1.00  0.00    -0.080 Cl
HETATM   11 CL   UNL     1      -0.033  -3.213  -0.631  1.00  0.00    -0.080 Cl
ENDBRANCH   1   8
BRANCH   1  12
HETATM   12  O   UNL     1       0.778   0.327  -2.559  1.00  0.00    -0.379 OA
HETATM   13  H   UNL     1      -0.183   0.499  -2.601  1.00  0.00     0.211 HD
ENDBRANCH   1  12
TORSDOF 5
