REMARK  2 active torsions:
REMARK  status: ('A' for Active; 'I' for Inactive)
REMARK    1  A    between atoms: N_3  and  S_12 
REMARK    2  A    between atoms: S_12  and  C_13 
ROOT
HETATM    1  O   UNL     1       1.599  -0.040   0.073  1.00  0.00    -0.266 OA
HETATM    2  C   UNL     1       2.817  -0.041   0.074  1.00  0.00     0.272 A 
HETATM    3  N   UNL     1       3.716  -1.087   0.074  1.00  0.00    -0.211 N 
HETATM    4  C   UNL     1       5.009  -0.626   0.074  1.00  0.00     0.272 A 
HETATM    5  O   UNL     1       6.075  -1.208   0.074  1.00  0.00    -0.266 OA
HETATM    6  C   UNL     1       4.934   0.833   0.074  1.00  0.00     0.049 A 
HETATM    7  C   UNL     1       3.602   1.189   0.074  1.00  0.00     0.049 A 
HETATM    8  C   UNL     1       3.199   2.511   0.074  1.00  0.00     0.018 A 
HETATM    9  C   UNL     1       4.202   3.486   0.074  1.00  0.00     0.001 A 
HETATM   10  C   UNL     1       5.564   3.121   0.074  1.00  0.00     0.001 A 
HETATM   11  C   UNL     1       5.944   1.776   0.074  1.00  0.00     0.018 A 
ENDROOT
BRANCH   3  12
HETATM   12  S   UNL     1       3.161  -2.688   0.073  1.00  0.00     0.018 SA
BRANCH  12  13
HETATM   13  C   UNL     1       4.585  -3.820   0.076  1.00  0.00     0.257 C 
HETATM   14 CL   UNL     1       5.556  -3.714  -1.413  1.00  0.00    -0.070 Cl
HETATM   15 CL   UNL     1       5.554  -3.711   1.567  1.00  0.00    -0.070 Cl
HETATM   16 CL   UNL     1       3.886  -5.506   0.077  1.00  0.00    -0.070 Cl
ENDBRANCH  12  13
ENDBRANCH   3  12
TORSDOF 2
