REMARK  8 active torsions:
REMARK  status: ('A' for Active; 'I' for Inactive)
REMARK    1  A    between atoms: N_2  and  C_3 
REMARK    2  A    between atoms: C_4  and  N_16 
REMARK    3  A    between atoms: C_5  and  N_13 
REMARK    4  A    between atoms: C_7  and  C_9 
REMARK    5  A    between atoms: N_16  and  C_17 
REMARK    6  A    between atoms: N_16  and  C_20 
REMARK    7  A    between atoms: C_17  and  C_18 
REMARK    8  A    between atoms: C_20  and  C_21 
ROOT
HETATM    1  C   UNL     1       3.339   0.784   0.891  1.00  0.00     0.127 C 
HETATM    2  C   UNL     1       3.627   0.105   2.106  1.00  0.00     0.077 C 
HETATM    3  C   UNL     1       3.585   0.979   3.228  1.00  0.00     0.127 C 
HETATM    4  C   UNL     1       3.470   2.392   3.133  1.00  0.00     0.054 C 
HETATM    5  C   UNL     1       3.308   3.013   1.896  1.00  0.00     0.052 C 
HETATM    6  C   UNL     1       3.188   2.189   0.780  1.00  0.00     0.054 C 
ENDROOT
BRANCH   2   7
HETATM    7  N   UNL     1       3.994  -1.273   2.254  1.00  0.00    -0.279 NA
BRANCH   7   8
HETATM    8  C   UNL     1       5.473  -1.469   2.420  1.00  0.00     0.095 C 
BRANCH   8   9
HETATM    9  C   UNL     1       5.981  -1.180   3.836  1.00  0.00     0.010 C 
HETATM   10  C   UNL     1       7.272  -1.915   4.171  1.00  0.00     0.006 C 
ENDBRANCH   8   9
ENDBRANCH   7   8
BRANCH   7  11
HETATM   11  C   UNL     1       3.381  -2.225   1.283  1.00  0.00     0.095 C 
BRANCH  11  12
HETATM   12  C   UNL     1       3.497  -3.713   1.627  1.00  0.00     0.010 C 
HETATM   13  C   UNL     1       2.860  -4.546   0.514  1.00  0.00     0.006 C 
ENDBRANCH  11  12
ENDBRANCH   7  11
ENDBRANCH   2   7
BRANCH   1  14
HETATM   14  N   UNL     1       3.100   0.110  -0.366  1.00  0.00    -0.114 N 
HETATM   15  O   UNL     1       1.932  -0.229  -0.602  1.00  0.00    -0.532 OA
HETATM   16  O   UNL     1       4.061  -0.006  -1.136  1.00  0.00    -0.532 OA
ENDBRANCH   1  14
BRANCH   3  17
HETATM   17  N   UNL     1       3.496   0.463   4.591  1.00  0.00    -0.114 N 
HETATM   18  O   UNL     1       4.257   0.973   5.431  1.00  0.00    -0.532 OA
HETATM   19  O   UNL     1       2.611  -0.363   4.839  1.00  0.00    -0.532 OA
ENDBRANCH   3  17
BRANCH   5  20
HETATM   20  C   UNL     1       3.169   4.511   1.770  1.00  0.00     0.417 C 
HETATM   21  F   UNL     1       3.602   4.977   0.567  1.00  0.00    -0.166 F 
HETATM   22  F   UNL     1       1.878   4.917   1.891  1.00  0.00    -0.166 F 
HETATM   23  F   UNL     1       3.875   5.189   2.713  1.00  0.00    -0.166 F 
ENDBRANCH   5  20
TORSDOF 8
