REMARK  9 active torsions:
REMARK  status: ('A' for Active; 'I' for Inactive)
REMARK    1  A    between atoms: O_1  and  C_2 
REMARK    2  A    between atoms: C_2  and  C_3 
REMARK    3  A    between atoms: C_3  and  O_4 
REMARK    4  A    between atoms: O_4  and  C_5 
REMARK    5  A    between atoms: C_5  and  C_6 
REMARK    6  A    between atoms: C_6  and  O_7 
REMARK    7  A    between atoms: O_7  and  C_8 
REMARK    8  A    between atoms: C_8  and  C_9 
REMARK    9  A    between atoms: C_9  and  O_10 
ROOT
HETATM    1  C   UNL     1       4.775  -1.794  -2.032  1.00  0.00     0.193 C 
ENDROOT
BRANCH   1   2
HETATM    2  O   UNL     1       4.267  -0.932  -1.014  1.00  0.00    -0.387 OA
BRANCH   2   3
HETATM    3  C   UNL     1       2.840  -0.924  -1.004  1.00  0.00     0.193 C 
BRANCH   3   4
HETATM    4  C   UNL     1       2.350   0.012   0.093  1.00  0.00     0.190 C 
BRANCH   4   5
HETATM    5  O   UNL     1       0.928   0.038   0.120  1.00  0.00    -0.399 OA
HETATM    6  H   UNL     1       0.672   0.644   0.836  1.00  0.00     0.209 HD
ENDBRANCH   4   5
ENDBRANCH   3   4
ENDBRANCH   2   3
ENDBRANCH   1   2
BRANCH   1   7
HETATM    7  C   UNL     1       6.300  -1.775  -1.994  1.00  0.00     0.193 C 
BRANCH   7   8
HETATM    8  O   UNL     1       6.812  -2.626  -3.020  1.00  0.00    -0.387 OA
BRANCH   8   9
HETATM    9  C   UNL     1       8.237  -2.660  -3.006  1.00  0.00     0.193 C 
BRANCH   9  10
HETATM   10  C   UNL     1       8.734  -3.591  -4.107  1.00  0.00     0.190 C 
BRANCH  10  11
HETATM   11  O   UNL     1      10.156  -3.612  -4.153  1.00  0.00    -0.399 OA
HETATM   12  H   UNL     1      10.449  -2.743  -4.474  1.00  0.00     0.209 HD
ENDBRANCH  10  11
ENDBRANCH   9  10
ENDBRANCH   8   9
ENDBRANCH   7   8
ENDBRANCH   1   7
TORSDOF 9
