REMARK  9 active torsions:
REMARK  status: ('A' for Active; 'I' for Inactive)
REMARK    1  A    between atoms: O_1  and  C_2 
REMARK    2  A    between atoms: C_2  and  C_3 
REMARK    3  A    between atoms: C_3  and  N_4 
REMARK    4  A    between atoms: N_4  and  C_5 
REMARK    5  A    between atoms: N_4  and  C_8 
REMARK    6  A    between atoms: C_5  and  C_6 
REMARK    7  A    between atoms: C_6  and  O_7 
REMARK    8  A    between atoms: C_8  and  C_9 
REMARK    9  A    between atoms: C_9  and  O_10 
ROOT
HETATM    1  N   UNL     1       4.403   0.828   1.088  1.00  0.00     0.094 N 
ENDROOT
BRANCH   1   2
HETATM    2  C   UNL     1       2.926   0.768   1.227  1.00  0.00     0.298 C 
BRANCH   2   3
HETATM    3  C   UNL     1       2.156  -0.009   0.152  1.00  0.00     0.194 C 
BRANCH   3   4
HETATM    4  O   UNL     1       0.813  -0.217   0.589  1.00  0.00    -0.399 OA
HETATM    5  H   UNL     1       0.379  -0.771  -0.082  1.00  0.00     0.209 HD
ENDBRANCH   3   4
ENDBRANCH   2   3
ENDBRANCH   1   2
BRANCH   1   6
HETATM    6  C   UNL     1       4.841   1.665  -0.048  1.00  0.00     0.298 C 
BRANCH   6   7
HETATM    7  C   UNL     1       4.851   0.964  -1.417  1.00  0.00     0.194 C 
BRANCH   7   8
HETATM    8  O   UNL     1       5.581   1.744  -2.365  1.00  0.00    -0.399 OA
HETATM    9  H   UNL     1       5.118   2.591  -2.471  1.00  0.00     0.209 HD
ENDBRANCH   7   8
ENDBRANCH   6   7
ENDBRANCH   1   6
BRANCH   1  10
HETATM   10  C   UNL     1       4.950   1.351   2.366  1.00  0.00     0.298 C 
BRANCH  10  11
HETATM   11  C   UNL     1       6.471   1.205   2.556  1.00  0.00     0.194 C 
BRANCH  11  12
HETATM   12  O   UNL     1       6.847   1.667   3.854  1.00  0.00    -0.399 OA
HETATM   13  H   UNL     1       6.644   2.617   3.896  1.00  0.00     0.209 HD
ENDBRANCH  11  12
ENDBRANCH  10  11
ENDBRANCH   1  10
TORSDOF 9
