REMARK  0 active torsions:
REMARK  status: ('A' for Active; 'I' for Inactive)
ROOT
HETATM    1  C   UNL     1       0.931  -0.078   0.115  1.00  0.00     0.049 C 
HETATM    2  C   UNL     1       2.426   0.027  -0.028  1.00  0.00    -0.056 A 
HETATM    3  C   UNL     1       3.139   1.238  -0.059  1.00  0.00    -0.056 A 
HETATM    4  C   UNL     1       4.543   1.197  -0.165  1.00  0.00     0.008 A 
HETATM    5  C   UNL     1       5.233  -0.014  -0.238  1.00  0.00     0.007 A 
HETATM    6  C   UNL     1       4.536  -1.218  -0.205  1.00  0.00    -0.061 A 
HETATM    7  C   UNL     1       3.140  -1.188  -0.094  1.00  0.00     0.014 A 
HETATM    8  C   UNL     1       5.255  -2.533  -0.265  1.00  0.00     0.048 C 
HETATM    9  C   UNL     1       2.511   2.603   0.028  1.00  0.00     0.049 C 
ENDROOT
TORSDOF 0
