REMARK  9 active torsions:
REMARK  status: ('A' for Active; 'I' for Inactive)
REMARK    1  A    between atoms: P_2  and  O_3 
REMARK    2  A    between atoms: P_2  and  O_7 
REMARK    3  A    between atoms: P_2  and  O_11 
REMARK    4  A    between atoms: O_3  and  C_4 
REMARK    5  A    between atoms: C_4  and  C_5 
REMARK    6  A    between atoms: O_7  and  C_8 
REMARK    7  A    between atoms: C_8  and  C_9 
REMARK    8  A    between atoms: O_11  and  C_12 
REMARK    9  A    between atoms: C_12  and  C_13 
ROOT
HETATM    1  O   UNL     1       1.091   0.016  -0.037  1.00  0.00    -0.227 OA
HETATM    2  P   UNL     1       2.640   0.016  -0.037  1.00  0.00     0.477 P 
ENDROOT
BRANCH   2   3
HETATM    3  O   UNL     1       2.756   0.070   1.615  1.00  0.00    -0.291 OA
BRANCH   3   4
HETATM    4  C   UNL     1       2.706   1.386   2.155  1.00  0.00     0.195 C 
BRANCH   4   5
HETATM    5  C   UNL     1       2.678   1.315   3.671  1.00  0.00     0.141 C 
HETATM    6 CL   UNL     1       2.681   2.948   4.372  1.00  0.00    -0.128 Cl
ENDBRANCH   4   5
ENDBRANCH   3   4
ENDBRANCH   2   3
BRANCH   2   7
HETATM    7  O   UNL     1       2.724  -1.635  -0.264  1.00  0.00    -0.291 OA
BRANCH   7   8
HETATM    8  C   UNL     1       1.633  -2.317  -0.882  1.00  0.00     0.195 C 
BRANCH   8   9
HETATM    9  C   UNL     1       2.087  -3.684  -1.361  1.00  0.00     0.141 C 
HETATM   10 CL   UNL     1       0.736  -4.576  -2.096  1.00  0.00    -0.128 Cl
ENDBRANCH   8   9
ENDBRANCH   7   8
ENDBRANCH   2   7
BRANCH   2  11
HETATM   11  O   UNL     1       4.370   0.016  -0.037  1.00  0.00    -0.291 OA
BRANCH  11  12
HETATM   12  C   UNL     1       5.115  -1.127   0.385  1.00  0.00     0.195 C 
BRANCH  12  13
HETATM   13  C   UNL     1       6.583  -0.749   0.496  1.00  0.00     0.141 C 
HETATM   14 CL   UNL     1       7.571  -2.168   0.907  1.00  0.00    -0.128 Cl
ENDBRANCH  12  13
ENDBRANCH  11  12
ENDBRANCH   2  11
TORSDOF 9
