REMARK  21 active torsions:
REMARK  status: ('A' for Active; 'I' for Inactive)
REMARK    1  A    between atoms: P_2  and  O_3 
REMARK    2  A    between atoms: P_2  and  O_12 
REMARK    3  A    between atoms: P_2  and  O_21 
REMARK    4  A    between atoms: O_3  and  C_4 
REMARK    5  A    between atoms: C_4  and  C_5 
REMARK    6  A    between atoms: C_5  and  C_6 
REMARK    7  A    between atoms: C_5  and  C_10 
REMARK    8  A    between atoms: C_6  and  C_7 
REMARK    9  A    between atoms: C_7  and  C_8 
REMARK   10  A    between atoms: O_12  and  C_13 
REMARK   11  A    between atoms: C_13  and  C_14 
REMARK   12  A    between atoms: C_14  and  C_15 
REMARK   13  A    between atoms: C_14  and  C_19 
REMARK   14  A    between atoms: C_15  and  C_16 
REMARK   15  A    between atoms: C_16  and  C_17 
REMARK   16  A    between atoms: O_21  and  C_22 
REMARK   17  A    between atoms: C_22  and  C_23 
REMARK   18  A    between atoms: C_23  and  C_24 
REMARK   19  A    between atoms: C_23  and  C_28 
REMARK   20  A    between atoms: C_24  and  C_25 
REMARK   21  A    between atoms: C_25  and  C_26 
ROOT
HETATM    1  O   UNL     1       0.988  -0.077   0.062  1.00  0.00    -0.227 OA
HETATM    2  P   UNL     1       2.536  -0.077   0.062  1.00  0.00     0.477 P 
ENDROOT
BRANCH   2   3
HETATM    3  O   UNL     1       2.589  -1.557   0.814  1.00  0.00    -0.292 OA
BRANCH   3   4
HETATM    4  C   UNL     1       2.557  -1.474   2.234  1.00  0.00     0.185 C 
BRANCH   4   5
HETATM    5  C   UNL     1       2.497  -2.848   2.939  1.00  0.00     0.010 C 
BRANCH   5   6
HETATM    6  C   UNL     1       3.670  -3.776   2.550  1.00  0.00     0.007 C 
BRANCH   6   7
HETATM    7  C   UNL     1       3.494  -4.464   1.190  1.00  0.00     0.000 C 
BRANCH   7   8
HETATM    8  C   UNL     1       4.742  -5.264   0.810  1.00  0.00    -0.005 C 
HETATM    9  C   UNL     1       4.796  -5.536  -0.685  1.00  0.00     0.005 C 
ENDBRANCH   7   8
ENDBRANCH   6   7
ENDBRANCH   5   6
BRANCH   5  10
HETATM   10  C   UNL     1       2.471  -2.566   4.462  1.00  0.00     0.002 C 
HETATM   11  C   UNL     1       2.287  -3.792   5.343  1.00  0.00     0.005 C 
ENDBRANCH   5  10
ENDBRANCH   4   5
ENDBRANCH   3   4
ENDBRANCH   2   3
BRANCH   2  12
HETATM   12  O   UNL     1       2.633  -0.501  -1.569  1.00  0.00    -0.292 OA
BRANCH  12  13
HETATM   13  C   UNL     1       1.432  -0.359  -2.338  1.00  0.00     0.185 C 
BRANCH  13  14
HETATM   14  C   UNL     1       1.555  -0.299  -3.873  1.00  0.00     0.010 C 
BRANCH  14  15
HETATM   15  C   UNL     1       2.201  -1.550  -4.492  1.00  0.00     0.007 C 
BRANCH  15  16
HETATM   16  C   UNL     1       3.688  -1.676  -4.176  1.00  0.00     0.000 C 
BRANCH  16  17
HETATM   17  C   UNL     1       4.338  -2.818  -4.952  1.00  0.00    -0.005 C 
HETATM   18  C   UNL     1       5.801  -2.963  -4.570  1.00  0.00     0.005 C 
ENDBRANCH  16  17
ENDBRANCH  15  16
ENDBRANCH  14  15
BRANCH  14  19
HETATM   19  C   UNL     1       0.113  -0.078  -4.411  1.00  0.00     0.002 C 
HETATM   20  C   UNL     1      -0.006   0.143  -5.910  1.00  0.00     0.005 C 
ENDBRANCH  14  19
ENDBRANCH  13  14
ENDBRANCH  12  13
ENDBRANCH   2  12
BRANCH   2  21
HETATM   21  O   UNL     1       4.266  -0.077   0.062  1.00  0.00    -0.292 OA
BRANCH  21  22
HETATM   22  C   UNL     1       5.017  -1.256  -0.194  1.00  0.00     0.185 C 
BRANCH  22  23
HETATM   23  C   UNL     1       6.539  -1.017  -0.094  1.00  0.00     0.010 C 
BRANCH  23  24
HETATM   24  C   UNL     1       6.993  -0.609   1.329  1.00  0.00     0.007 C 
BRANCH  24  25
HETATM   25  C   UNL     1       6.455   0.738   1.818  1.00  0.00     0.000 C 
BRANCH  25  26
HETATM   26  C   UNL     1       7.088   1.145   3.149  1.00  0.00    -0.005 C 
HETATM   27  C   UNL     1       6.535   2.476   3.633  1.00  0.00     0.005 C 
ENDBRANCH  25  26
ENDBRANCH  24  25
ENDBRANCH  23  24
BRANCH  23  28
HETATM   28  C   UNL     1       7.242  -2.327  -0.529  1.00  0.00     0.002 C 
HETATM   29  C   UNL     1       8.751  -2.230  -0.685  1.00  0.00     0.005 C 
ENDBRANCH  23  28
ENDBRANCH  22  23
ENDBRANCH  21  22
ENDBRANCH   2  21
TORSDOF 21
