REMARK  0 active torsions:
REMARK  status: ('A' for Active; 'I' for Inactive)
REMARK       I    between atoms: C_1  and  N_2 
REMARK       I    between atoms: C_1  and  N_3 
ROOT
HETATM    1  C   UNL     1       0.942   0.014  -0.073  1.00  0.00     0.311 C 
HETATM    2  N   UNL     1       0.208  -0.693   0.807  1.00  0.00    -0.352 N 
HETATM    3  N   UNL     1       0.208   0.721  -0.953  1.00  0.00    -0.352 N 
HETATM    4  O   UNL     1       2.162   0.014  -0.073  1.00  0.00    -0.248 OA
HETATM    5  H   UNL     1      -0.798  -0.695   0.810  1.00  0.00     0.160 HD
HETATM    6  H   UNL     1       0.706  -1.244   1.493  1.00  0.00     0.160 HD
HETATM    7  H   UNL     1      -0.798   0.723  -0.955  1.00  0.00     0.160 HD
HETATM    8  H   UNL     1       0.706   1.272  -1.638  1.00  0.00     0.160 HD
ENDROOT
TORSDOF 0
