REMARK  1 active torsions:
REMARK  status: ('A' for Active; 'I' for Inactive)
REMARK    1  A    between atoms: N_3  and  C_7 
ROOT
HETATM    1  C   UNL     1      -0.737  -1.022   0.032  1.00  0.00     0.131 C 
HETATM    2  C   UNL     1       0.776  -1.044   0.119  1.00  0.00     0.029 C 
HETATM    3  N   UNL     1      -1.089   0.319   0.425  1.00  0.00    -0.329 N 
HETATM    4  C   UNL     1       1.180   0.387  -0.200  1.00  0.00     0.105 C 
HETATM    5  C   UNL     1      -0.005   1.194   0.270  1.00  0.00     0.223 C 
HETATM    6  O   UNL     1       0.002   2.404   0.436  1.00  0.00    -0.273 OA
ENDROOT
BRANCH   3   7
HETATM    7  C   UNL     1      -2.341   0.741   0.802  1.00  0.00     0.083 C 
HETATM    8  C   UNL     1      -3.415  -0.043   0.941  1.00  0.00     0.030 C 
ENDBRANCH   3   7
TORSDOF 1
