REMARK  6 active torsions:
REMARK  status: ('A' for Active; 'I' for Inactive)
REMARK    1  A    between atoms: N_2  and  C_10 
REMARK    2  A    between atoms: C_3  and  N_20 
REMARK    3  A    between atoms: C_5  and  C_6 
REMARK    4  A    between atoms: C_15  and  S_16 
REMARK    5  A    between atoms: N_21  and  C_22 
REMARK    6  A    between atoms: C_27  and  S_28 
ROOT
HETATM    1  N   UNL     1      -0.992  -0.151  -0.205  1.00  0.00    -0.187 NA
HETATM    2  N   UNL     1      -0.144  -1.228   0.028  1.00  0.00    -0.235 N 
HETATM    3  C   UNL     1       1.111   0.747  -0.045  1.00  0.00     0.178 A 
HETATM    4  C   UNL     1       1.180  -0.762   0.075  1.00  0.00     0.295 A 
HETATM    5  C   UNL     1      -0.202   1.008  -0.140  1.00  0.00     0.141 A 
HETATM    6  O   UNL     1       2.208  -1.417   0.188  1.00  0.00    -0.264 OA
HETATM    7  H   UNL     1      -1.796  -0.029   0.420  1.00  0.00     0.154 HD
ENDROOT
BRANCH   3   8
HETATM    8  N   UNL     1       2.171   1.611  -0.011  1.00  0.00    -0.142 NA
HETATM    9  N   UNL     1       3.280   1.112   0.265  1.00  0.00    -0.150 NA
BRANCH   9  10
HETATM   10  C   UNL     1       4.375   1.980   0.069  1.00  0.00     0.079 A 
HETATM   11  C   UNL     1       4.297   3.382   0.047  1.00  0.00     0.035 A 
HETATM   12  C   UNL     1       5.447   4.160  -0.145  1.00  0.00     0.028 A 
HETATM   13  C   UNL     1       6.688   3.536  -0.315  1.00  0.00     0.080 A 
HETATM   14  C   UNL     1       6.788   2.145  -0.292  1.00  0.00     0.028 A 
HETATM   15  C   UNL     1       5.634   1.379  -0.098  1.00  0.00     0.035 A 
BRANCH  13  16
HETATM   16  S   UNL     1       8.167   4.560  -0.551  1.00  0.00     0.137 S 
HETATM   17  O   UNL     1       7.888   5.239  -1.814  1.00  0.00    -0.591 OA
HETATM   18  O   UNL     1       8.160   5.411   0.636  1.00  0.00    -0.591 OA
HETATM   19  O   UNL     1       9.261   3.590  -0.602  1.00  0.00    -0.591 OA
ENDBRANCH  13  16
ENDBRANCH   9  10
ENDBRANCH   3   8
BRANCH   5  20
HETATM   20  C   UNL     1      -0.872   2.400  -0.046  1.00  0.00     0.225 C 
HETATM   21  O   UNL     1      -0.180   3.410  -0.338  1.00  0.00    -0.643 OA
HETATM   22  O   UNL     1      -2.083   2.337   0.341  1.00  0.00    -0.643 OA
ENDBRANCH   5  20
BRANCH   2  23
HETATM   23  C   UNL     1      -0.620  -2.559  -0.045  1.00  0.00     0.055 A 
HETATM   24  C   UNL     1       0.219  -3.648   0.239  1.00  0.00     0.033 A 
HETATM   25  C   UNL     1      -0.241  -4.967   0.129  1.00  0.00     0.028 A 
HETATM   26  C   UNL     1      -1.555  -5.209  -0.274  1.00  0.00     0.080 A 
HETATM   27  C   UNL     1      -2.416  -4.145  -0.546  1.00  0.00     0.028 A 
HETATM   28  C   UNL     1      -1.948  -2.829  -0.424  1.00  0.00     0.033 A 
BRANCH  26  29
HETATM   29  S   UNL     1      -2.110  -6.926  -0.447  1.00  0.00     0.137 S 
HETATM   30  O   UNL     1      -1.214  -7.447  -1.476  1.00  0.00    -0.591 OA
HETATM   31  O   UNL     1      -1.902  -7.464   0.896  1.00  0.00    -0.591 OA
HETATM   32  O   UNL     1      -3.510  -6.805  -0.851  1.00  0.00    -0.591 OA
ENDBRANCH  26  29
ENDBRANCH   2  23
TORSDOF 6
