REMARK  5 active torsions:
REMARK  status: ('A' for Active; 'I' for Inactive)
REMARK    1  A    between atoms: S_1  and  C_2 
REMARK    2  A    between atoms: C_6  and  N_7 
REMARK    3  A    between atoms: N_8  and  C_9 
REMARK    4  A    between atoms: C_12  and  S_13 
REMARK    5  A    between atoms: C_19  and  O_20 
ROOT
HETATM    1  C   UNL     1       0.356   1.061  -1.185  1.00  0.00     0.081 A 
HETATM    2  C   UNL     1       0.705   2.402  -1.013  1.00  0.00     0.038 A 
HETATM    3  C   UNL     1       0.348   3.356  -1.976  1.00  0.00    -0.022 A 
HETATM    4  C   UNL     1      -0.367   2.962  -3.142  1.00  0.00     0.007 A 
HETATM    5  C   UNL     1      -0.673   3.941  -4.127  1.00  0.00     0.123 A 
HETATM    6  C   UNL     1      -0.268   5.274  -3.905  1.00  0.00     0.097 A 
HETATM    7  C   UNL     1       0.407   5.656  -2.754  1.00  0.00     0.040 A 
HETATM    8  C   UNL     1       0.718   4.697  -1.796  1.00  0.00     0.015 A 
HETATM    9  C   UNL     1      -0.725   1.597  -3.269  1.00  0.00     0.016 A 
HETATM   10  C   UNL     1      -0.369   0.652  -2.300  1.00  0.00     0.027 A 
ENDROOT
BRANCH   5  11
HETATM   11  N   UNL     1      -1.253   3.553  -5.364  1.00  0.00    -0.146 NA
HETATM   12  N   UNL     1      -2.235   4.261  -5.682  1.00  0.00    -0.150 NA
BRANCH  12  13
HETATM   13  C   UNL     1      -2.736   3.928  -6.964  1.00  0.00     0.079 A 
HETATM   14  C   UNL     1      -2.808   2.610  -7.447  1.00  0.00     0.035 A 
HETATM   15  C   UNL     1      -3.330   2.338  -8.715  1.00  0.00     0.028 A 
HETATM   16  C   UNL     1      -3.794   3.389  -9.509  1.00  0.00     0.080 A 
HETATM   17  C   UNL     1      -3.743   4.706  -9.049  1.00  0.00     0.028 A 
HETATM   18  C   UNL     1      -3.217   4.967  -7.778  1.00  0.00     0.035 A 
BRANCH  16  19
HETATM   19  S   UNL     1      -4.487   3.006 -11.141  1.00  0.00     0.137 S 
HETATM   20  O   UNL     1      -3.331   2.457 -11.843  1.00  0.00    -0.591 OA
HETATM   21  O   UNL     1      -5.542   2.051 -10.812  1.00  0.00    -0.591 OA
HETATM   22  O   UNL     1      -4.954   4.302 -11.628  1.00  0.00    -0.591 OA
ENDBRANCH  16  19
ENDBRANCH  12  13
ENDBRANCH   5  11
BRANCH   6  23
HETATM   23  O   UNL     1      -0.501   6.255  -4.837  1.00  0.00    -0.358 OA
HETATM   24  H   UNL     1      -1.004   5.811  -5.549  1.00  0.00     0.217 HD
ENDBRANCH   6  23
BRANCH   1  25
HETATM   25  S   UNL     1       0.891  -0.128   0.073  1.00  0.00     0.137 S 
HETATM   26  O   UNL     1       0.326  -1.395  -0.383  1.00  0.00    -0.591 OA
HETATM   27  O   UNL     1       0.294   0.419   1.289  1.00  0.00    -0.591 OA
HETATM   28  O   UNL     1       2.346  -0.028  -0.012  1.00  0.00    -0.591 OA
ENDBRANCH   1  25
TORSDOF 5
