REMARK  4 active torsions:
REMARK  status: ('A' for Active; 'I' for Inactive)
REMARK    1  A    between atoms: O_1  and  C_2 
REMARK    2  A    between atoms: C_2  and  C_3 
REMARK    3  A    between atoms: C_5  and  C_6 
REMARK    4  A    between atoms: C_6  and  O_7 
ROOT
HETATM    1  C   UNL     1       3.201   0.550   1.295  1.00  0.00     0.038 A 
HETATM    2  C   UNL     1       3.123   1.913   1.594  1.00  0.00     0.036 A 
HETATM    3  C   UNL     1       3.808   2.420   2.707  1.00  0.00     0.038 A 
HETATM    4  C   UNL     1       4.552   1.553   3.521  1.00  0.00     0.018 A 
HETATM    5  C   UNL     1       4.649   0.197   3.195  1.00  0.00     0.002 A 
HETATM    6  C   UNL     1       3.983  -0.304   2.077  1.00  0.00     0.018 A 
ENDROOT
BRANCH   1   7
HETATM    7  C   UNL     1       2.475  -0.015   0.141  1.00  0.00     0.176 C 
HETATM    8  O   UNL     1       2.992  -0.769  -0.664  1.00  0.00    -0.646 OA
BRANCH   7   9
HETATM    9  O   UNL     1       1.174   0.340   0.122  1.00  0.00    -0.773 OA
HETATM   10  H   UNL     1       0.868   0.839   0.903  1.00  0.00     0.167 HD
ENDBRANCH   7   9
ENDBRANCH   1   7
BRANCH   3  11
HETATM   11  C   UNL     1       3.657   3.868   3.004  1.00  0.00     0.176 C 
HETATM   12  O   UNL     1       2.690   4.506   2.624  1.00  0.00    -0.646 OA
BRANCH  11  13
HETATM   13  O   UNL     1       4.674   4.415   3.699  1.00  0.00    -0.773 OA
HETATM   14  H   UNL     1       5.474   3.868   3.790  1.00  0.00     0.167 HD
ENDBRANCH  11  13
ENDBRANCH   3  11
TORSDOF 4
