REMARK  9 active torsions:
REMARK  status: ('A' for Active; 'I' for Inactive)
REMARK    1  A    between atoms: C_2  and  C_3 
REMARK    2  A    between atoms: C_3  and  C_4 
REMARK    3  A    between atoms: C_4  and  O_5 
REMARK    4  A    between atoms: O_5  and  C_6 
REMARK    5  A    between atoms: C_6  and  C_7 
REMARK    6  A    between atoms: C_7  and  O_8 
REMARK    7  A    between atoms: O_8  and  C_9 
REMARK    8  A    between atoms: C_9  and  C_10 
REMARK    9  A    between atoms: C_10  and  O_11 
ROOT
HETATM    1  C   UNL     1       6.425  -2.605  -1.029  1.00  0.00     0.193 C 
ENDROOT
BRANCH   1   2
HETATM    2  O   UNL     1       4.999  -2.556  -1.014  1.00  0.00    -0.389 OA
BRANCH   2   3
HETATM    3  C   UNL     1       4.525  -1.319  -0.483  1.00  0.00     0.167 C 
BRANCH   3   4
HETATM    4  C   UNL     1       3.001  -1.344  -0.494  1.00  0.00     0.026 C 
BRANCH   4   5
HETATM    5  C   UNL     1       2.414  -0.050   0.063  1.00  0.00    -0.002 C 
HETATM    6  C   UNL     1       0.894  -0.075   0.051  1.00  0.00     0.005 C 
ENDBRANCH   4   5
ENDBRANCH   3   4
ENDBRANCH   2   3
ENDBRANCH   1   2
BRANCH   1   7
HETATM    7  C   UNL     1       6.882  -3.937  -1.614  1.00  0.00     0.193 C 
BRANCH   7   8
HETATM    8  O   UNL     1       8.309  -3.989  -1.613  1.00  0.00    -0.387 OA
BRANCH   8   9
HETATM    9  C   UNL     1       8.788  -5.207  -2.178  1.00  0.00     0.193 C 
BRANCH   9  10
HETATM   10  C   UNL     1      10.313  -5.204  -2.165  1.00  0.00     0.190 C 
BRANCH  10  11
HETATM   11  O   UNL     1      10.831  -6.427  -2.677  1.00  0.00    -0.399 OA
HETATM   12  H   UNL     1      10.621  -7.123  -2.031  1.00  0.00     0.209 HD
ENDBRANCH  10  11
ENDBRANCH   9  10
ENDBRANCH   8   9
ENDBRANCH   7   8
ENDBRANCH   1   7
TORSDOF 9
