REMARK  3 active torsions:
REMARK  status: ('A' for Active; 'I' for Inactive)
REMARK    1  A    between atoms: O_1  and  C_2 
REMARK    2  A    between atoms: C_2  and  C_3 
REMARK    3  A    between atoms: C_3  and  C_4 
ROOT
HETATM    1  C   UNL     1       2.385  -0.085   0.123  1.00  0.00     0.139 C 
HETATM    2  O   UNL     1       3.041  -0.987   0.628  1.00  0.00    -0.650 OA
ENDROOT
BRANCH   1   3
HETATM    3  O   UNL     1       1.039  -0.113   0.139  1.00  0.00    -0.776 OA
HETATM    4  H   UNL     1       0.581   0.635  -0.281  1.00  0.00     0.167 HD
ENDBRANCH   1   3
BRANCH   1   5
HETATM    5  C   UNL     1       3.044   1.105  -0.544  1.00  0.00     0.109 C 
BRANCH   5   6
HETATM    6  C   UNL     1       2.129   2.170  -1.141  1.00  0.00     0.006 C 
HETATM    7  C   UNL     1       2.929   3.299  -1.774  1.00  0.00     0.005 C 
ENDBRANCH   5   6
ENDBRANCH   1   5
TORSDOF 3
