REMARK  2 active torsions:
REMARK  status: ('A' for Active; 'I' for Inactive)
REMARK    1  A    between atoms: C_2  and  C_5 
REMARK    2  A    between atoms: C_5  and  O_6 
ROOT
HETATM    1  C   UNL     1       0.973   0.086  -0.080  1.00  0.00     0.062 C 
HETATM    2  C   UNL     1       2.494   0.006  -0.091  1.00  0.00     0.193 C 
HETATM    3 CL   UNL     1       3.105   1.044  -1.420  1.00  0.00    -0.090 Cl
HETATM    4 CL   UNL     1       3.105   0.633   1.474  1.00  0.00    -0.090 Cl
ENDROOT
BRANCH   2   5
HETATM    5  C   UNL     1       3.093  -1.403  -0.292  1.00  0.00     0.180 C 
HETATM    6  O   UNL     1       4.297  -1.637  -0.325  1.00  0.00    -0.648 OA
BRANCH   5   7
HETATM    7  O   UNL     1       2.217  -2.430  -0.438  1.00  0.00    -0.774 OA
HETATM    8  H   UNL     1       1.261  -2.245  -0.412  1.00  0.00     0.167 HD
ENDBRANCH   5   7
ENDBRANCH   2   5
TORSDOF 2
