REMARK  6 active torsions:
REMARK  status: ('A' for Active; 'I' for Inactive)
REMARK    1  A    between atoms: C_2  and  O_3 
REMARK    2  A    between atoms: C_2  and  C_4 
REMARK    3  A    between atoms: C_4  and  C_5 
REMARK    4  A    between atoms: C_5  and  C_6 
REMARK    5  A    between atoms: C_6  and  C_7 
REMARK    6  A    between atoms: C_7  and  C_8 
ROOT
HETATM    1  C   UNL     1       2.966  -0.883   0.823  1.00  0.00     0.110 C 
ENDROOT
BRANCH   1   2
HETATM    2  C   UNL     1       2.092  -0.035  -0.078  1.00  0.00     0.139 C 
HETATM    3  O   UNL     1       0.870  -0.085  -0.025  1.00  0.00    -0.650 OA
BRANCH   2   4
HETATM    4  O   UNL     1       2.716   0.783  -0.946  1.00  0.00    -0.776 OA
HETATM    5  H   UNL     1       3.688   0.774  -0.937  1.00  0.00     0.167 HD
ENDBRANCH   2   4
ENDBRANCH   1   2
BRANCH   1   6
HETATM    6  C   UNL     1       4.477  -0.737   0.668  1.00  0.00     0.010 C 
BRANCH   6   7
HETATM    7  C   UNL     1       5.235  -1.649   1.636  1.00  0.00     0.001 C 
BRANCH   7   8
HETATM    8  C   UNL     1       6.747  -1.489   1.467  1.00  0.00    -0.000 C 
BRANCH   8   9
HETATM    9  C   UNL     1       7.521  -2.392   2.426  1.00  0.00    -0.005 C 
HETATM   10  C   UNL     1       9.022  -2.226   2.249  1.00  0.00     0.005 C 
ENDBRANCH   8   9
ENDBRANCH   7   8
ENDBRANCH   6   7
ENDBRANCH   1   6
TORSDOF 6
