REMARK  5 active torsions:
REMARK  status: ('A' for Active; 'I' for Inactive)
REMARK    1  A    between atoms: C_2  and  C_3 
REMARK    2  A    between atoms: C_3  and  C_4 
REMARK    3  A    between atoms: C_4  and  C_5 
REMARK    4  A    between atoms: C_5  and  C_6 
REMARK    5  A    between atoms: C_6  and  O_7 
ROOT
HETATM    1  C   UNL     1       5.229  -2.798  -0.406  1.00  0.00     0.110 C 
ENDROOT
BRANCH   1   2
HETATM    2  C   UNL     1       4.653  -1.396  -0.222  1.00  0.00     0.010 C 
BRANCH   2   3
HETATM    3  C   UNL     1       3.123  -1.415  -0.224  1.00  0.00     0.000 C 
BRANCH   3   4
HETATM    4  C   UNL     1       2.554  -0.008  -0.038  1.00  0.00    -0.005 C 
HETATM    5  C   UNL     1       1.034  -0.014  -0.039  1.00  0.00     0.005 C 
ENDBRANCH   3   4
ENDBRANCH   2   3
ENDBRANCH   1   2
BRANCH   1   6
HETATM    6  C   UNL     1       6.737  -2.932  -0.424  1.00  0.00     0.139 C 
HETATM    7  O   UNL     1       7.287  -4.017  -0.567  1.00  0.00    -0.650 OA
BRANCH   6   8
HETATM    8  O   UNL     1       7.457  -1.804  -0.275  1.00  0.00    -0.776 OA
HETATM    9  H   UNL     1       6.957  -0.977  -0.166  1.00  0.00     0.167 HD
ENDBRANCH   6   8
ENDBRANCH   1   6
TORSDOF 5
