REMARK  7 active torsions:
REMARK  status: ('A' for Active; 'I' for Inactive)
REMARK    1  A    between atoms: O_1  and  C_2 
REMARK    2  A    between atoms: C_2  and  C_3 
REMARK    3  A    between atoms: C_3  and  C_4 
REMARK    4  A    between atoms: C_4  and  C_5 
REMARK    5  A    between atoms: C_5  and  C_6 
REMARK    6  A    between atoms: C_6  and  C_7 
REMARK    7  A    between atoms: C_7  and  O_8 
ROOT
HETATM    1  C   UNL     1       2.099  -1.694   1.770  1.00  0.00     0.011 C 
ENDROOT
BRANCH   1   2
HETATM    2  C   UNL     1       3.010  -0.823   0.909  1.00  0.00     0.110 C 
BRANCH   2   3
HETATM    3  C   UNL     1       2.350   0.147  -0.050  1.00  0.00     0.139 C 
HETATM    4  O   UNL     1       3.010   0.880  -0.775  1.00  0.00    -0.650 OA
BRANCH   3   5
HETATM    5  O   UNL     1       1.006   0.171  -0.073  1.00  0.00    -0.776 OA
HETATM    6  H   UNL     1       0.538  -0.435   0.526  1.00  0.00     0.167 HD
ENDBRANCH   3   5
ENDBRANCH   2   3
ENDBRANCH   1   2
BRANCH   1   7
HETATM    7  C   UNL     1       2.913  -2.618   2.683  1.00  0.00     0.011 C 
BRANCH   7   8
HETATM    8  C   UNL     1       2.002  -3.490   3.544  1.00  0.00     0.110 C 
BRANCH   8   9
HETATM    9  C   UNL     1       2.661  -4.459   4.503  1.00  0.00     0.139 C 
HETATM   10  O   UNL     1       2.001  -5.193   5.228  1.00  0.00    -0.650 OA
BRANCH   9  11
HETATM   11  O   UNL     1       4.005  -4.483   4.526  1.00  0.00    -0.776 OA
HETATM   12  H   UNL     1       4.473  -3.877   3.927  1.00  0.00     0.167 HD
ENDBRANCH   9  11
ENDBRANCH   8   9
ENDBRANCH   7   8
ENDBRANCH   1   7
TORSDOF 7
