REMARK  8 active torsions:
REMARK  status: ('A' for Active; 'I' for Inactive)
REMARK    1  A    between atoms: C_2  and  C_3 
REMARK    2  A    between atoms: C_3  and  C_4 
REMARK    3  A    between atoms: C_4  and  C_5 
REMARK    4  A    between atoms: C_5  and  C_6 
REMARK    5  A    between atoms: C_6  and  C_7 
REMARK    6  A    between atoms: C_7  and  C_8 
REMARK    7  A    between atoms: C_8  and  C_9 
REMARK    8  A    between atoms: C_9  and  O_10 
ROOT
HETATM    1  C   UNL     1       6.629  -2.685  -1.262  1.00  0.00     0.001 C 
ENDROOT
BRANCH   1   2
HETATM    2  C   UNL     1       5.101  -2.641  -1.240  1.00  0.00     0.000 C 
BRANCH   2   3
HETATM    3  C   UNL     1       4.578  -1.352  -0.605  1.00  0.00     0.000 C 
BRANCH   3   4
HETATM    4  C   UNL     1       3.048  -1.331  -0.595  1.00  0.00    -0.000 C 
BRANCH   4   5
HETATM    5  C   UNL     1       2.508  -0.049   0.037  1.00  0.00    -0.005 C 
HETATM    6  C   UNL     1       0.987  -0.034   0.044  1.00  0.00     0.005 C 
ENDBRANCH   4   5
ENDBRANCH   3   4
ENDBRANCH   2   3
ENDBRANCH   1   2
BRANCH   1   7
HETATM    7  C   UNL     1       7.128  -3.983  -1.901  1.00  0.00     0.010 C 
BRANCH   7   8
HETATM    8  C   UNL     1       8.653  -4.046  -1.932  1.00  0.00     0.110 C 
BRANCH   8   9
HETATM    9  C   UNL     1       9.281  -5.282  -2.541  1.00  0.00     0.139 C 
HETATM   10  O   UNL     1      10.497  -5.421  -2.610  1.00  0.00    -0.650 OA
BRANCH   9  11
HETATM   11  O   UNL     1       8.448  -6.230  -3.008  1.00  0.00    -0.776 OA
HETATM   12  H   UNL     1       7.495  -6.057  -2.923  1.00  0.00     0.167 HD
ENDBRANCH   9  11
ENDBRANCH   8   9
ENDBRANCH   7   8
ENDBRANCH   1   7
TORSDOF 8
