REMARK  7 active torsions:
REMARK  status: ('A' for Active; 'I' for Inactive)
REMARK    1  A    between atoms: C_2  and  C_3 
REMARK    2  A    between atoms: C_3  and  C_4 
REMARK    3  A    between atoms: C_4  and  C_5 
REMARK    4  A    between atoms: C_5  and  C_6 
REMARK    5  A    between atoms: C_6  and  C_7 
REMARK    6  A    between atoms: C_7  and  C_8 
REMARK    7  A    between atoms: C_8  and  O_9 
ROOT
HETATM    1  C   UNL     1       6.546   1.201   2.622  1.00  0.00     0.010 C 
ENDROOT
BRANCH   1   2
HETATM    2  C   UNL     1       5.016   1.206   2.633  1.00  0.00     0.001 C 
BRANCH   2   3
HETATM    3  C   UNL     1       4.458   0.585   1.351  1.00  0.00     0.000 C 
BRANCH   3   4
HETATM    4  C   UNL     1       2.929   0.581   1.344  1.00  0.00    -0.000 C 
BRANCH   4   5
HETATM    5  C   UNL     1       2.386  -0.042   0.058  1.00  0.00    -0.005 C 
HETATM    6  C   UNL     1       0.866  -0.052   0.038  1.00  0.00     0.005 C 
ENDBRANCH   4   5
ENDBRANCH   3   4
ENDBRANCH   2   3
ENDBRANCH   1   2
BRANCH   1   7
HETATM    7  C   UNL     1       7.119   1.819   3.895  1.00  0.00     0.110 C 
BRANCH   7   8
HETATM    8  C   UNL     1       8.628   1.878   4.018  1.00  0.00     0.139 C 
HETATM    9  O   UNL     1       9.176   2.356   5.003  1.00  0.00    -0.650 OA
BRANCH   8  10
HETATM   10  O   UNL     1       9.348   1.382   2.995  1.00  0.00    -0.776 OA
HETATM   11  H   UNL     1       8.850   1.018   2.244  1.00  0.00     0.167 HD
ENDBRANCH   8  10
ENDBRANCH   7   8
ENDBRANCH   1   7
TORSDOF 7
