REMARK  6 active torsions:
REMARK  status: ('A' for Active; 'I' for Inactive)
REMARK    1  A    between atoms: C_2  and  C_3 
REMARK    2  A    between atoms: C_3  and  C_4 
REMARK    3  A    between atoms: C_4  and  C_5 
REMARK    4  A    between atoms: C_5  and  C_6 
REMARK    5  A    between atoms: C_6  and  C_7 
REMARK    6  A    between atoms: C_7  and  C_8 
ROOT
HETATM    1  C   UNL     1       5.140  -1.887  -2.077  1.00  0.00     0.000 C 
ENDROOT
BRANCH   1   2
HETATM    2  C   UNL     1       4.608  -0.910  -1.027  1.00  0.00     0.000 C 
BRANCH   2   3
HETATM    3  C   UNL     1       3.079  -0.894  -1.010  1.00  0.00    -0.000 C 
BRANCH   3   4
HETATM    4  C   UNL     1       2.542   0.081   0.038  1.00  0.00    -0.005 C 
HETATM    5  C   UNL     1       1.022   0.097   0.056  1.00  0.00     0.005 C 
ENDBRANCH   3   4
ENDBRANCH   2   3
ENDBRANCH   1   2
BRANCH   1   6
HETATM    6  C   UNL     1       6.668  -1.907  -2.098  1.00  0.00     0.007 C 
BRANCH   6   7
HETATM    7  C   UNL     1       7.195  -2.882  -3.147  1.00  0.00     0.069 C 
BRANCH   7   8
HETATM    8  C   UNL     1       8.701  -2.900  -3.166  1.00  0.00     0.231 C 
HETATM    9  O   UNL     1       9.348  -3.611  -3.930  1.00  0.00    -0.307 OA
ENDBRANCH   7   8
ENDBRANCH   6   7
ENDBRANCH   1   6
TORSDOF 6
