REMARK  3 active torsions:
REMARK  status: ('A' for Active; 'I' for Inactive)
REMARK    1  A    between atoms: C_2  and  C_3 
REMARK    2  A    between atoms: C_3  and  C_4 
REMARK    3  A    between atoms: C_4  and  C_5 
ROOT
HETATM    1  C   UNL     1       2.955   1.092   0.983  1.00  0.00     0.006 C 
ENDROOT
BRANCH   1   2
HETATM    2  C   UNL     1       2.411   0.024   0.036  1.00  0.00    -0.004 C 
HETATM    3  C   UNL     1       0.890   0.012   0.026  1.00  0.00     0.005 C 
ENDBRANCH   1   2
BRANCH   1   4
HETATM    4  C   UNL     1       4.481   1.102   0.991  1.00  0.00     0.069 C 
BRANCH   4   5
HETATM    5  C   UNL     1       5.013   2.157   1.926  1.00  0.00     0.231 C 
HETATM    6  O   UNL     1       6.214   2.349   2.096  1.00  0.00    -0.307 OA
ENDBRANCH   4   5
ENDBRANCH   1   4
TORSDOF 3
