REMARK  1 active torsions:
REMARK  status: ('A' for Active; 'I' for Inactive)
REMARK    1  A    between atoms: O_1  and  C_2 
ROOT
HETATM    1  C   UNL     1       2.383  -0.035   0.081  1.00  0.00     0.066 A 
HETATM    2  C   UNL     1       3.051   1.181  -0.043  1.00  0.00     0.044 A 
HETATM    3  C   UNL     1       4.447   1.206  -0.205  1.00  0.00    -0.038 A 
HETATM    4  C   UNL     1       5.153   2.525  -0.343  1.00  0.00     0.050 C 
HETATM    5  C   UNL     1       5.143  -0.015  -0.243  1.00  0.00     0.040 A 
HETATM    6 CL   UNL     1       6.858  -0.070  -0.449  1.00  0.00    -0.084 Cl
HETATM    7  C   UNL     1       4.461  -1.229  -0.117  1.00  0.00     0.027 A 
HETATM    8  C   UNL     1       3.076  -1.238   0.047  1.00  0.00     0.038 A 
ENDROOT
BRANCH   1   9
HETATM    9  O   UNL     1       1.030  -0.089   0.240  1.00  0.00    -0.361 OA
HETATM   10  H   UNL     1       0.678   0.816   0.242  1.00  0.00     0.217 HD
ENDBRANCH   1   9
TORSDOF 1
