REMARK  0 active torsions:
REMARK  status: ('A' for Active; 'I' for Inactive)
ROOT
HETATM    1  C   UNL     1       1.013  -0.040   0.064  1.00  0.00     0.049 C 
HETATM    2  C   UNL     1       2.518  -0.048  -0.148  1.00  0.00     0.108 C 
HETATM    3  C   UNL     1       2.901   0.049  -1.621  1.00  0.00     0.049 C 
HETATM    4  N   UNL     1       3.151  -1.193   0.470  1.00  0.00    -0.325 N 
HETATM    5  C   UNL     1       4.177  -0.828   1.309  1.00  0.00     0.323 C 
HETATM    6  O   UNL     1       4.920  -1.602   1.885  1.00  0.00    -0.247 OA
HETATM    7  N   UNL     1       4.207   0.522   1.389  1.00  0.00    -0.277 N 
HETATM    8  C   UNL     1       3.214   1.074   0.640  1.00  0.00     0.253 C 
HETATM    9  O   UNL     1       2.961   2.268   0.578  1.00  0.00    -0.270 OA
HETATM   10  H   UNL     1       2.991  -2.164   0.237  1.00  0.00     0.165 HD
HETATM   11  H   UNL     1       4.835   1.037   1.981  1.00  0.00     0.173 HD
ENDROOT
TORSDOF 0
