REMARK  0 active torsions:
REMARK  status: ('A' for Active; 'I' for Inactive)
ROOT
HETATM    1  C   UNL     1       2.362   0.508  -0.001  1.00  0.00     0.008 A 
HETATM    2  C   UNL     1       2.520  -0.890   0.000  1.00  0.00     0.001 A 
HETATM    3  C   UNL     1       1.415  -1.767   0.001  1.00  0.00     0.012 A 
HETATM    4  C   UNL     1       0.105  -1.254   0.001  1.00  0.00    -0.025 A 
HETATM    5  C   UNL     1      -1.095  -1.987   0.001  1.00  0.00     0.012 A 
HETATM    6  C   UNL     1      -2.336  -1.316   0.001  1.00  0.00     0.001 A 
HETATM    7  C   UNL     1      -2.424   0.089  -0.001  1.00  0.00     0.008 A 
HETATM    8  C   UNL     1      -1.221   0.781  -0.001  1.00  0.00    -0.046 A 
HETATM    9  C   UNL     1      -0.015   0.112  -0.000  1.00  0.00    -0.013 A 
HETATM   10  C   UNL     1       1.057   0.981  -0.001  1.00  0.00    -0.046 A 
HETATM   11  C   UNL     1       0.572   2.389  -0.002  1.00  0.00     0.044 A 
HETATM   12  C   UNL     1      -0.988   2.252  -0.002  1.00  0.00     0.044 A 
ENDROOT
TORSDOF 0
