REMARK  10 active torsions:
REMARK  status: ('A' for Active; 'I' for Inactive)
REMARK    1  A    between atoms: C_4  and  C_5 
REMARK    2  A    between atoms: C_5  and  O_7 
REMARK    3  A    between atoms: O_7  and  C_8 
REMARK    4  A    between atoms: C_8  and  C_9 
REMARK    5  A    between atoms: C_9  and  C_10 
REMARK    6  A    between atoms: C_13  and  C_14 
REMARK    7  A    between atoms: C_14  and  O_16 
REMARK    8  A    between atoms: O_16  and  C_17 
REMARK    9  A    between atoms: C_17  and  C_18 
REMARK   10  A    between atoms: C_18  and  C_19 
ROOT
HETATM    1  C   UNL     1      -0.484  -1.127  -0.103  1.00  0.00     0.001 A 
HETATM    2  C   UNL     1      -1.212   0.025   0.193  1.00  0.00     0.001 A 
HETATM    3  C   UNL     1      -0.567   1.261   0.261  1.00  0.00     0.018 A 
HETATM    4  C   UNL     1       0.814   1.351   0.022  1.00  0.00     0.055 A 
HETATM    5  C   UNL     1       0.888  -1.045  -0.349  1.00  0.00     0.018 A 
HETATM    6  C   UNL     1       1.542   0.197  -0.290  1.00  0.00     0.055 A 
ENDROOT
BRANCH   4   7
HETATM    7  C   UNL     1       1.495   2.647   0.210  1.00  0.00     0.294 C 
HETATM    8  O   UNL     1       2.519   2.782   0.857  1.00  0.00    -0.259 OA
BRANCH   7   9
HETATM    9  O   UNL     1       0.782   3.617  -0.414  1.00  0.00    -0.317 OA
BRANCH   9  10
HETATM   10  C   UNL     1       1.360   4.929  -0.358  1.00  0.00     0.179 C 
BRANCH  10  11
HETATM   11  C   UNL     1       0.229   5.951  -0.438  1.00  0.00     0.026 C 
BRANCH  11  12
HETATM   12  C   UNL     1       0.764   7.380  -0.461  1.00  0.00    -0.002 C 
HETATM   13  C   UNL     1      -0.363   8.400  -0.452  1.00  0.00     0.005 C 
ENDBRANCH  11  12
ENDBRANCH  10  11
ENDBRANCH   9  10
ENDBRANCH   7   9
ENDBRANCH   4   7
BRANCH   6  14
HETATM   14  C   UNL     1       2.968   0.282  -0.671  1.00  0.00     0.294 C 
HETATM   15  O   UNL     1       3.417   1.137  -1.414  1.00  0.00    -0.259 OA
BRANCH  14  16
HETATM   16  O   UNL     1       3.646  -0.747  -0.105  1.00  0.00    -0.317 OA
BRANCH  16  17
HETATM   17  C   UNL     1       5.053  -0.767  -0.385  1.00  0.00     0.179 C 
BRANCH  17  18
HETATM   18  C   UNL     1       5.548  -2.202  -0.233  1.00  0.00     0.026 C 
BRANCH  18  19
HETATM   19  C   UNL     1       7.051  -2.307  -0.481  1.00  0.00    -0.002 C 
HETATM   20  C   UNL     1       7.531  -3.748  -0.410  1.00  0.00     0.005 C 
ENDBRANCH  18  19
ENDBRANCH  17  18
ENDBRANCH  16  17
ENDBRANCH  14  16
ENDBRANCH   6  14
TORSDOF 10
