REMARK  6 active torsions:
REMARK  status: ('A' for Active; 'I' for Inactive)
REMARK    1  A    between atoms: C_2  and  O_3 
REMARK    2  A    between atoms: O_3  and  C_4 
REMARK    3  A    between atoms: C_4  and  C_6 
REMARK    4  A    between atoms: C_11  and  C_12 
REMARK    5  A    between atoms: C_12  and  O_14 
REMARK    6  A    between atoms: O_14  and  C_15 
ROOT
HETATM    1  C   UNL     1       4.654   1.206  -2.623  1.00  0.00     0.055 A 
HETATM    2  C   UNL     1       4.638   2.606  -2.756  1.00  0.00     0.018 A 
HETATM    3  C   UNL     1       4.932   3.198  -3.983  1.00  0.00     0.001 A 
HETATM    4  C   UNL     1       5.247   2.398  -5.077  1.00  0.00     0.001 A 
HETATM    5  C   UNL     1       5.271   1.006  -4.943  1.00  0.00     0.018 A 
HETATM    6  C   UNL     1       4.976   0.387  -3.713  1.00  0.00     0.055 A 
ENDROOT
BRANCH   1   7
HETATM    7  C   UNL     1       4.350   0.686  -1.287  1.00  0.00     0.294 C 
HETATM    8  O   UNL     1       5.180   0.515  -0.413  1.00  0.00    -0.259 OA
BRANCH   7   9
HETATM    9  O   UNL     1       3.006   0.538  -1.203  1.00  0.00    -0.318 OA
BRANCH   9  10
HETATM   10  C   UNL     1       2.552   0.090   0.079  1.00  0.00     0.174 C 
HETATM   11  C   UNL     1       1.043  -0.048   0.023  1.00  0.00     0.034 C 
ENDBRANCH   9  10
ENDBRANCH   7   9
ENDBRANCH   1   7
BRANCH   6  12
HETATM   12  C   UNL     1       5.053  -1.100  -3.689  1.00  0.00     0.294 C 
HETATM   13  O   UNL     1       5.463  -1.752  -4.639  1.00  0.00    -0.259 OA
BRANCH  12  14
HETATM   14  O   UNL     1       4.609  -1.623  -2.526  1.00  0.00    -0.318 OA
BRANCH  14  15
HETATM   15  C   UNL     1       4.707  -3.050  -2.438  1.00  0.00     0.174 C 
HETATM   16  C   UNL     1       4.279  -3.470  -1.046  1.00  0.00     0.034 C 
ENDBRANCH  14  15
ENDBRANCH  12  14
ENDBRANCH   6  12
TORSDOF 6
