REMARK  0 active torsions:
REMARK  status: ('A' for Active; 'I' for Inactive)
ROOT
HETATM    1  N   UNL     1       1.215  -1.375   0.019  1.00  0.00    -0.260 NA
HETATM    2  C   UNL     1       2.362  -0.660   0.023  1.00  0.00     0.117 A 
HETATM    3  C   UNL     1       2.411   0.721   0.012  1.00  0.00     0.020 A 
HETATM    4  C   UNL     1       1.208   1.416  -0.004  1.00  0.00     0.015 A 
HETATM    5  C   UNL     1      -0.003   0.712  -0.010  1.00  0.00    -0.007 A 
HETATM    6  C   UNL     1       0.051  -0.699   0.003  1.00  0.00     0.066 A 
HETATM    7  C   UNL     1      -1.147  -1.400  -0.003  1.00  0.00     0.032 A 
HETATM    8  C   UNL     1      -2.383  -0.746  -0.021  1.00  0.00     0.002 A 
HETATM    9  C   UNL     1      -2.431   0.644  -0.033  1.00  0.00     0.001 A 
HETATM   10  C   UNL     1      -1.244   1.373  -0.027  1.00  0.00     0.014 A 
ENDROOT
TORSDOF 0
