REMARK  1 active torsions:
REMARK  status: ('A' for Active; 'I' for Inactive)
REMARK    1  A    between atoms: O_1  and  C_2 
ROOT
HETATM    1  C   UNL     1       2.321  -0.117   0.019  1.00  0.00     0.071 A 
HETATM    2  C   UNL     1       2.996   1.104  -0.090  1.00  0.00    -0.029 A 
HETATM    3  C   UNL     1       2.336   2.453  -0.079  1.00  0.00     0.051 C 
HETATM    4  C   UNL     1       4.400   1.076  -0.193  1.00  0.00     0.009 A 
HETATM    5  C   UNL     1       5.101  -0.133  -0.195  1.00  0.00     0.001 A 
HETATM    6  C   UNL     1       4.410  -1.335  -0.090  1.00  0.00     0.003 A 
HETATM    7  C   UNL     1       3.021  -1.325   0.018  1.00  0.00     0.037 A 
ENDROOT
BRANCH   1   8
HETATM    8  O   UNL     1       0.966  -0.234   0.134  1.00  0.00    -0.360 OA
HETATM    9  H   UNL     1       0.555   0.641   0.108  1.00  0.00     0.217 HD
ENDBRANCH   1   8
TORSDOF 1
