REMARK  1 active torsions:
REMARK  status: ('A' for Active; 'I' for Inactive)
REMARK    1  A    between atoms: C_1  and  C_8 
ROOT
HETATM    1  C   UNL     1       4.593   1.185  -0.085  1.00  0.00     0.001 A 
HETATM    2  C   UNL     1       5.285  -0.024  -0.117  1.00  0.00     0.000 A 
HETATM    3  C   UNL     1       4.586  -1.230  -0.060  1.00  0.00     0.001 A 
HETATM    4  C   UNL     1       3.191  -1.230   0.029  1.00  0.00     0.015 A 
HETATM    5  C   UNL     1       2.489  -0.019   0.059  1.00  0.00     0.009 A 
HETATM    6  C   UNL     1       3.200   1.188   0.003  1.00  0.00     0.015 A 
ENDROOT
BRANCH   5   7
HETATM    7  C   UNL     1       0.999   0.037   0.149  1.00  0.00     0.155 C 
HETATM    8  C   UNL     1       0.222  -1.252   0.201  1.00  0.00     0.096 C 
HETATM    9  O   UNL     1       0.425   1.125   0.184  1.00  0.00    -0.293 OA
ENDBRANCH   5   7
TORSDOF 1
