REMARK  2 active torsions:
REMARK  status: ('A' for Active; 'I' for Inactive)
REMARK    1  A    between atoms: C_2  and  C_3 
REMARK    2  A    between atoms: N_5  and  O_6 
ROOT
HETATM    1  C   UNL     1       3.117   1.430   0.540  1.00  0.00     0.035 C 
HETATM    2  C   UNL     1       2.178   2.533   0.974  1.00  0.00     0.068 C 
HETATM    3  N   UNL     1       4.413   1.551   0.587  1.00  0.00    -0.146 NA
ENDROOT
BRANCH   1   4
HETATM    4  C   UNL     1       2.588   0.101   0.017  1.00  0.00     0.052 C 
HETATM    5  C   UNL     1       1.084  -0.069  -0.050  1.00  0.00     0.011 C 
ENDBRANCH   1   4
BRANCH   3   6
HETATM    6  O   UNL     1       4.797   2.803   1.080  1.00  0.00    -0.266 OA
HETATM    7  H   UNL     1       5.771   2.746   1.057  1.00  0.00     0.247 HD
ENDBRANCH   3   6
TORSDOF 2
