REMARK  1 active torsions:
REMARK  status: ('A' for Active; 'I' for Inactive)
REMARK    1  A    between atoms: C_4  and  N_5 
ROOT
HETATM    1  C   UNL     1       1.013  -0.084   0.059  1.00  0.00     0.048 C 
HETATM    2  C   UNL     1       2.509  -0.046  -0.051  1.00  0.00    -0.060 A 
HETATM    3  C   UNL     1       3.193   1.173  -0.158  1.00  0.00     0.042 A 
HETATM    4  C   UNL     1       4.591   1.180  -0.273  1.00  0.00     0.103 A 
HETATM    5  C   UNL     1       5.314  -0.019  -0.285  1.00  0.00     0.036 A 
HETATM    6  C   UNL     1       4.631  -1.231  -0.183  1.00  0.00     0.003 A 
HETATM    7  C   UNL     1       3.239  -1.243  -0.068  1.00  0.00     0.007 A 
ENDROOT
BRANCH   4   8
HETATM    8  N   UNL     1       5.304   2.459  -0.382  1.00  0.00    -0.116 N 
HETATM    9  O   UNL     1       6.531   2.422  -0.557  1.00  0.00    -0.532 OA
HETATM   10  O   UNL     1       4.639   3.501  -0.294  1.00  0.00    -0.532 OA
ENDBRANCH   4   8
TORSDOF 1
