REMARK  2 active torsions:
REMARK  status: ('A' for Active; 'I' for Inactive)
REMARK    1  A    between atoms: O_1  and  C_2 
REMARK    2  A    between atoms: C_5  and  N_6 
ROOT
HETATM    1  C   UNL     1       2.358   0.099   0.044  1.00  0.00     0.065 A 
HETATM    2  C   UNL     1       3.018   1.322  -0.051  1.00  0.00     0.039 A 
HETATM    3  C   UNL     1       4.404   1.343  -0.231  1.00  0.00     0.039 A 
HETATM    4  C   UNL     1       5.111   0.134  -0.313  1.00  0.00     0.103 A 
HETATM    5  C   UNL     1       4.440  -1.093  -0.212  1.00  0.00     0.039 A 
HETATM    6  C   UNL     1       3.056  -1.103  -0.032  1.00  0.00     0.039 A 
ENDROOT
BRANCH   4   7
HETATM    7  N   UNL     1       6.566   0.154  -0.509  1.00  0.00    -0.116 N 
HETATM    8  O   UNL     1       7.115   1.258  -0.634  1.00  0.00    -0.532 OA
HETATM    9  O   UNL     1       7.159  -0.934  -0.539  1.00  0.00    -0.532 OA
ENDBRANCH   4   7
BRANCH   1  10
HETATM   10  O   UNL     1       1.007   0.034   0.214  1.00  0.00    -0.361 OA
HETATM   11  H   UNL     1       0.644   0.935   0.227  1.00  0.00     0.217 HD
ENDBRANCH   1  10
TORSDOF 2
