REMARK  1 active torsions:
REMARK  status: ('A' for Active; 'I' for Inactive)
REMARK    1  A    between atoms: N_2  and  C_4 
ROOT
HETATM    1  C   UNL     1       3.005   0.606   1.060  1.00  0.00     0.029 A 
HETATM    2  C   UNL     1       2.635   1.924   1.365  1.00  0.00     0.030 A 
HETATM    3  C   UNL     1       3.377   2.711   2.257  1.00  0.00     0.009 A 
HETATM    4  C   UNL     1       4.517   2.198   2.878  1.00  0.00    -0.062 A 
HETATM    5  C   UNL     1       5.291   3.022   3.862  1.00  0.00     0.048 C 
HETATM    6  C   UNL     1       4.883   0.878   2.615  1.00  0.00     0.009 A 
HETATM    7  C   UNL     1       4.138   0.101   1.719  1.00  0.00     0.030 A 
ENDROOT
BRANCH   1   8
HETATM    8  N   UNL     1       2.283  -0.216   0.176  1.00  0.00    -0.390 N 
HETATM    9  C   UNL     1       0.950   0.220  -0.236  1.00  0.00     0.149 C 
HETATM   10  C   UNL     1       3.094  -0.786  -0.904  1.00  0.00     0.149 C 
ENDBRANCH   1   8
TORSDOF 1
