REMARK  2 active torsions:
REMARK  status: ('A' for Active; 'I' for Inactive)
REMARK    1  A    between atoms: C_2  and  N_3 
REMARK    2  A    between atoms: N_3  and  C_4 
ROOT
HETATM    1  C   UNL     1       4.429   0.956   0.987  1.00  0.00     0.008 A 
HETATM    2  C   UNL     1       5.005   2.215   1.225  1.00  0.00     0.030 A 
HETATM    3  C   UNL     1       6.385   2.371   1.430  1.00  0.00    -0.060 A 
HETATM    4  C   UNL     1       6.981   3.732   1.631  1.00  0.00     0.048 C 
HETATM    5  C   UNL     1       7.206   1.242   1.408  1.00  0.00     0.007 A 
HETATM    6  C   UNL     1       6.648  -0.020   1.220  1.00  0.00     0.002 A 
HETATM    7  C   UNL     1       5.270  -0.160   1.027  1.00  0.00     0.023 A 
ENDROOT
BRANCH   1   8
HETATM    8  N   UNL     1       3.035   0.875   0.861  1.00  0.00    -0.293 NA
HETATM    9  H   UNL     1       2.649   1.748   0.509  1.00  0.00     0.127 HD
BRANCH   8  10
HETATM   10  C   UNL     1       2.447  -0.300   0.227  1.00  0.00     0.088 C 
HETATM   11  C   UNL     1       0.942  -0.114   0.111  1.00  0.00     0.021 C 
ENDBRANCH   8  10
ENDBRANCH   1   8
TORSDOF 2
