REMARK  13 active torsions:
REMARK  status: ('A' for Active; 'I' for Inactive)
REMARK    1  A    between atoms: C_2  and  C_3 
REMARK    2  A    between atoms: C_3  and  C_4 
REMARK    3  A    between atoms: C_4  and  O_5 
REMARK    4  A    between atoms: O_5  and  C_6 
REMARK    5  A    between atoms: C_6  and  C_8 
REMARK    6  A    between atoms: C_8  and  C_9 
REMARK    7  A    between atoms: C_9  and  C_10 
REMARK    8  A    between atoms: C_10  and  C_11 
REMARK    9  A    between atoms: C_11  and  C_12 
REMARK   10  A    between atoms: C_12  and  O_14 
REMARK   11  A    between atoms: O_14  and  C_15 
REMARK   12  A    between atoms: C_15  and  C_16 
REMARK   13  A    between atoms: C_16  and  C_17 
ROOT
HETATM    1  C   UNL     1       8.486   3.267   3.124  1.00  0.00     0.010 C 
ENDROOT
BRANCH   1   2
HETATM    2  C   UNL     1       6.960   3.176   3.040  1.00  0.00     0.111 C 
BRANCH   2   3
HETATM    3  C   UNL     1       6.523   2.115   2.056  1.00  0.00     0.258 C 
HETATM    4  O   UNL     1       7.278   1.408   1.402  1.00  0.00    -0.265 OA
BRANCH   3   5
HETATM    5  O   UNL     1       5.160   2.059   2.004  1.00  0.00    -0.321 OA
BRANCH   5   6
HETATM    6  C   UNL     1       4.663   1.072   1.090  1.00  0.00     0.178 C 
BRANCH   6   7
HETATM    7  C   UNL     1       3.138   1.094   1.111  1.00  0.00     0.026 C 
BRANCH   7   8
HETATM    8  C   UNL     1       2.561   0.056   0.149  1.00  0.00    -0.002 C 
HETATM    9  C   UNL     1       1.042   0.060   0.152  1.00  0.00     0.005 C 
ENDBRANCH   7   8
ENDBRANCH   6   7
ENDBRANCH   5   6
ENDBRANCH   3   5
ENDBRANCH   2   3
ENDBRANCH   1   2
BRANCH   1  10
HETATM   10  C   UNL     1       8.934   4.338   4.117  1.00  0.00     0.010 C 
BRANCH  10  11
HETATM   11  C   UNL     1      10.460   4.429   4.201  1.00  0.00     0.111 C 
BRANCH  11  12
HETATM   12  C   UNL     1      10.897   5.491   5.184  1.00  0.00     0.258 C 
HETATM   13  O   UNL     1      10.142   6.197   5.838  1.00  0.00    -0.265 OA
BRANCH  12  14
HETATM   14  O   UNL     1      12.260   5.547   5.236  1.00  0.00    -0.321 OA
BRANCH  14  15
HETATM   15  C   UNL     1      12.757   6.534   6.150  1.00  0.00     0.178 C 
BRANCH  15  16
HETATM   16  C   UNL     1      14.283   6.511   6.130  1.00  0.00     0.026 C 
BRANCH  16  17
HETATM   17  C   UNL     1      14.859   7.549   7.091  1.00  0.00    -0.002 C 
HETATM   18  C   UNL     1      16.379   7.546   7.088  1.00  0.00     0.005 C 
ENDBRANCH  16  17
ENDBRANCH  15  16
ENDBRANCH  14  15
ENDBRANCH  12  14
ENDBRANCH  11  12
ENDBRANCH  10  11
ENDBRANCH   1  10
TORSDOF 13
