REMARK  1 active torsions:
REMARK  status: ('A' for Active; 'I' for Inactive)
REMARK    1  A    between atoms: O_1  and  C_2 
ROOT
HETATM    1  C   UNL     1       2.459  -0.056   0.057  1.00  0.00     0.065 A 
HETATM    2  C   UNL     1       3.114   1.167  -0.040  1.00  0.00     0.037 A 
HETATM    3  C   UNL     1       4.498   1.194  -0.229  1.00  0.00     0.009 A 
HETATM    4  C   UNL     1       5.225   0.000  -0.324  1.00  0.00    -0.062 A 
HETATM    5  C   UNL     1       6.711   0.015  -0.526  1.00  0.00     0.048 C 
HETATM    6  C   UNL     1       4.548  -1.222  -0.218  1.00  0.00     0.009 A 
HETATM    7  C   UNL     1       3.165  -1.249  -0.028  1.00  0.00     0.037 A 
ENDROOT
BRANCH   1   8
HETATM    8  O   UNL     1       1.109  -0.128   0.237  1.00  0.00    -0.361 OA
HETATM    9  H   UNL     1       0.754   0.776   0.258  1.00  0.00     0.217 HD
ENDBRANCH   1   8
TORSDOF 1
