REMARK  1 active torsions:
REMARK  status: ('A' for Active; 'I' for Inactive)
REMARK    1  A    between atoms: O_1  and  C_2 
ROOT
HETATM    1  C   UNL     1       2.326  -0.016  -0.067  1.00  0.00     0.071 A 
HETATM    2  C   UNL     1       3.000   1.198  -0.228  1.00  0.00    -0.028 A 
HETATM    3  C   UNL     1       2.344   2.549  -0.192  1.00  0.00     0.051 C 
HETATM    4  C   UNL     1       4.399   1.163  -0.392  1.00  0.00     0.016 A 
HETATM    5  C   UNL     1       5.106  -0.047  -0.404  1.00  0.00    -0.061 A 
HETATM    6  C   UNL     1       6.594  -0.070  -0.597  1.00  0.00     0.048 C 
HETATM    7  C   UNL     1       4.403  -1.244  -0.256  1.00  0.00     0.009 A 
HETATM    8  C   UNL     1       3.020  -1.227  -0.084  1.00  0.00     0.037 A 
ENDROOT
BRANCH   1   9
HETATM    9  O   UNL     1       0.977  -0.124   0.114  1.00  0.00    -0.360 OA
HETATM   10  H   UNL     1       0.569   0.753   0.080  1.00  0.00     0.217 HD
ENDBRANCH   1   9
TORSDOF 1
