REMARK  1 active torsions:
REMARK  status: ('A' for Active; 'I' for Inactive)
REMARK    1  A    between atoms: N_1  and  C_2 
ROOT
HETATM    1  C   UNL     1       2.501   0.043   0.067  1.00  0.00     0.005 A 
HETATM    2  C   UNL     1       3.194   1.255   0.033  1.00  0.00     0.024 A 
HETATM    3  C   UNL     1       4.578   1.283  -0.165  1.00  0.00     0.008 A 
HETATM    4  C   UNL     1       5.299   0.092  -0.289  1.00  0.00    -0.062 A 
HETATM    5  C   UNL     1       6.785   0.104  -0.488  1.00  0.00     0.048 C 
HETATM    6  C   UNL     1       4.616  -1.124  -0.186  1.00  0.00     0.008 A 
HETATM    7  C   UNL     1       3.232  -1.145   0.012  1.00  0.00     0.024 A 
ENDROOT
BRANCH   1   8
HETATM    8  N   UNL     1       1.137   0.019   0.386  1.00  0.00    -0.303 NA
HETATM    9  H   UNL     1       0.640   0.856   0.100  1.00  0.00     0.124 HD
HETATM   10  H   UNL     1       0.667  -0.829   0.086  1.00  0.00     0.124 HD
ENDBRANCH   1   8
TORSDOF 1
