REMARK  5 active torsions:
REMARK  status: ('A' for Active; 'I' for Inactive)
REMARK    1  A    between atoms: C_2  and  O_4 
REMARK    2  A    between atoms: O_4  and  C_5 
REMARK    3  A    between atoms: C_5  and  C_6 
REMARK    4  A    between atoms: C_6  and  O_7 
REMARK    5  A    between atoms: O_7  and  C_8 
ROOT
HETATM    1  C   UNL     1       4.681  -0.765   1.008  1.00  0.00     0.205 C 
ENDROOT
BRANCH   1   2
HETATM    2  O   UNL     1       3.247  -0.761   1.004  1.00  0.00    -0.320 OA
BRANCH   2   3
HETATM    3  C   UNL     1       2.696   0.014   0.030  1.00  0.00     0.254 C 
HETATM    4  C   UNL     1       1.201  -0.051   0.111  1.00  0.00     0.126 C 
HETATM    5  O   UNL     1       3.315   0.670  -0.794  1.00  0.00    -0.266 OA
ENDBRANCH   2   3
ENDBRANCH   1   2
BRANCH   1   6
HETATM    6  C   UNL     1       5.164  -1.665   2.139  1.00  0.00     0.194 C 
BRANCH   6   7
HETATM    7  O   UNL     1       6.590  -1.682   2.161  1.00  0.00    -0.389 OA
BRANCH   7   8
HETATM    8  C   UNL     1       7.090  -2.514   3.206  1.00  0.00     0.163 C 
HETATM    9  C   UNL     1       8.605  -2.480   3.163  1.00  0.00     0.033 C 
ENDBRANCH   7   8
ENDBRANCH   6   7
ENDBRANCH   1   6
TORSDOF 5
