REMARK  3 active torsions:
REMARK  status: ('A' for Active; 'I' for Inactive)
REMARK    1  A    between atoms: C_3  and  C_4 
REMARK    2  A    between atoms: C_4  and  C_5 
REMARK    3  A    between atoms: C_5  and  C_6 
ROOT
HETATM    1  N   UNL     1       1.089  -0.003   0.045  1.00  0.00    -0.102 N 
HETATM    2  C   UNL     1       2.350  -0.003   0.045  1.00  0.00    -0.021 C 
HETATM    3  C   UNL     1       3.870  -0.003   0.045  1.00  0.00     0.108 C 
ENDROOT
BRANCH   3   4
HETATM    4  C   UNL     1       4.377   1.251   0.727  1.00  0.00     0.014 C 
BRANCH   4   5
HETATM    5  C   UNL     1       5.896   1.261   0.732  1.00  0.00     0.014 C 
BRANCH   5   6
HETATM    6  C   UNL     1       6.403   2.515   1.413  1.00  0.00     0.108 C 
HETATM    7  C   UNL     1       7.923   2.515   1.413  1.00  0.00    -0.021 C 
HETATM    8  N   UNL     1       9.184   2.515   1.413  1.00  0.00    -0.102 N 
ENDBRANCH   5   6
ENDBRANCH   4   5
ENDBRANCH   3   4
TORSDOF 3
