REMARK  6 active torsions:
REMARK  status: ('A' for Active; 'I' for Inactive)
REMARK    1  A    between atoms: O_1  and  C_2 
REMARK    2  A    between atoms: C_2  and  C_3 
REMARK    3  A    between atoms: C_3  and  N_4 
REMARK    4  A    between atoms: N_4  and  C_5 
REMARK    5  A    between atoms: C_5  and  C_6 
REMARK    6  A    between atoms: C_6  and  O_7 
ROOT
HETATM    1  N   UNL     1       4.406  -0.515  -1.359  1.00  0.00     0.087 N 
HETATM    2  H   UNL     1       4.734  -1.217  -0.695  1.00  0.00     0.316 HD
ENDROOT
BRANCH   1   3
HETATM    3  C   UNL     1       2.939  -0.486  -1.347  1.00  0.00     0.295 C 
BRANCH   3   4
HETATM    4  C   UNL     1       2.400  -0.091   0.032  1.00  0.00     0.194 C 
BRANCH   4   5
HETATM    5  O   UNL     1       0.977  -0.144   0.022  1.00  0.00    -0.399 OA
HETATM    6  H   UNL     1       0.679   0.176   0.891  1.00  0.00     0.209 HD
ENDBRANCH   4   5
ENDBRANCH   3   4
ENDBRANCH   1   3
BRANCH   1   7
HETATM    7  C   UNL     1       4.907  -0.835  -2.698  1.00  0.00     0.295 C 
BRANCH   7   8
HETATM    8  C   UNL     1       6.440  -0.852  -2.736  1.00  0.00     0.194 C 
BRANCH   8   9
HETATM    9  O   UNL     1       6.906  -1.223  -4.030  1.00  0.00    -0.399 OA
HETATM   10  H   UNL     1       6.596  -2.128  -4.205  1.00  0.00     0.209 HD
ENDBRANCH   8   9
ENDBRANCH   7   8
ENDBRANCH   1   7
TORSDOF 6
