REMARK  7 active torsions:
REMARK  status: ('A' for Active; 'I' for Inactive)
REMARK    1  A    between atoms: C_2  and  C_3 
REMARK    2  A    between atoms: C_3  and  C_4 
REMARK    3  A    between atoms: C_4  and  C_5 
REMARK    4  A    between atoms: C_5  and  C_6 
REMARK    5  A    between atoms: C_6  and  C_7 
REMARK    6  A    between atoms: C_7  and  C_8 
REMARK    7  A    between atoms: C_8  and  O_9 
ROOT
HETATM    1  C   UNL     1       5.069  -1.273   2.460  1.00  0.00     0.000 C 
ENDROOT
BRANCH   1   2
HETATM    2  C   UNL     1       4.531  -0.601   1.196  1.00  0.00     0.000 C 
BRANCH   2   3
HETATM    3  C   UNL     1       3.001  -0.591   1.179  1.00  0.00    -0.000 C 
BRANCH   3   4
HETATM    4  C   UNL     1       2.464   0.081  -0.085  1.00  0.00    -0.005 C 
HETATM    5  C   UNL     1       0.944   0.093  -0.105  1.00  0.00     0.005 C 
ENDBRANCH   3   4
ENDBRANCH   2   3
ENDBRANCH   1   2
BRANCH   1   6
HETATM    6  C   UNL     1       6.598  -1.282   2.478  1.00  0.00     0.002 C 
BRANCH   6   7
HETATM    7  C   UNL     1       7.136  -1.951   3.741  1.00  0.00     0.026 C 
BRANCH   7   8
HETATM    8  C   UNL     1       8.658  -1.963   3.766  1.00  0.00     0.164 C 
BRANCH   8   9
HETATM    9  O   UNL     1       9.116  -2.607   4.947  1.00  0.00    -0.401 OA
HETATM   10  H   UNL     1       8.773  -2.105   5.706  1.00  0.00     0.209 HD
ENDBRANCH   8   9
ENDBRANCH   7   8
ENDBRANCH   6   7
ENDBRANCH   1   6
TORSDOF 7
