REMARK  4 active torsions:
REMARK  status: ('A' for Active; 'I' for Inactive)
REMARK    1  A    between atoms: C_2  and  O_4 
REMARK    2  A    between atoms: O_4  and  C_5 
REMARK    3  A    between atoms: C_10  and  O_11 
REMARK    4  A    between atoms: O_11  and  C_12 
REMARK       I    between atoms: C_12  and  N_14 
ROOT
HETATM    1  C   UNL     1       4.254   1.141   0.516  1.00  0.00     0.103 A 
HETATM    2  C   UNL     1       4.795   2.421   0.696  1.00  0.00     0.040 A 
HETATM    3  C   UNL     1       6.157   2.597   0.947  1.00  0.00     0.003 A 
HETATM    4  C   UNL     1       6.995   1.488   1.041  1.00  0.00     0.003 A 
HETATM    5  C   UNL     1       6.466   0.206   0.897  1.00  0.00     0.040 A 
HETATM    6  C   UNL     1       5.096   0.034   0.657  1.00  0.00     0.114 A 
ENDROOT
BRANCH   6   7
HETATM    7  O   UNL     1       4.684  -1.294   0.482  1.00  0.00    -0.259 OA
BRANCH   7   8
HETATM    8  C   UNL     1       3.704  -1.774   1.337  1.00  0.00     0.365 C 
HETATM    9  O   UNL     1       3.289  -1.234   2.349  1.00  0.00    -0.238 OA
HETATM   10  N   UNL     1       3.218  -2.941   0.810  1.00  0.00    -0.341 N 
HETATM   11  C   UNL     1       1.976  -3.520   1.240  1.00  0.00     0.151 C 
HETATM   12  H   UNL     1       3.656  -3.260  -0.043  1.00  0.00     0.164 HD
ENDBRANCH   7   8
ENDBRANCH   6   7
BRANCH   1  13
HETATM   13  O   UNL     1       2.911   1.137   0.275  1.00  0.00    -0.344 OA
BRANCH  13  14
HETATM   14  C   UNL     1       2.403   0.334  -0.793  1.00  0.00     0.121 C 
HETATM   15  C   UNL     1       0.881   0.444  -0.709  1.00  0.00     0.040 C 
HETATM   16  C   UNL     1       2.896   0.807  -2.155  1.00  0.00     0.040 C 
ENDBRANCH  13  14
ENDBRANCH   1  13
TORSDOF 4
