REMARK  9 active torsions:
REMARK  status: ('A' for Active; 'I' for Inactive)
REMARK    1  A    between atoms: C_2  and  C_3 
REMARK    2  A    between atoms: C_3  and  C_4 
REMARK    3  A    between atoms: C_4  and  C_5 
REMARK    4  A    between atoms: C_5  and  C_6 
REMARK    5  A    between atoms: C_6  and  C_7 
REMARK    6  A    between atoms: C_7  and  C_8 
REMARK    7  A    between atoms: C_8  and  C_9 
REMARK    8  A    between atoms: C_9  and  C_10 
REMARK    9  A    between atoms: C_10  and  O_11 
ROOT
HETATM    1  C   UNL     1       6.508   2.310   1.737  1.00  0.00     0.000 C 
ENDROOT
BRANCH   1   2
HETATM    2  C   UNL     1       4.979   2.293   1.724  1.00  0.00     0.000 C 
BRANCH   2   3
HETATM    3  C   UNL     1       4.442   1.169   0.835  1.00  0.00     0.000 C 
BRANCH   3   4
HETATM    4  C   UNL     1       2.913   1.153   0.822  1.00  0.00    -0.000 C 
BRANCH   4   5
HETATM    5  C   UNL     1       2.377   0.030  -0.066  1.00  0.00    -0.005 C 
HETATM    6  C   UNL     1       0.857   0.010  -0.082  1.00  0.00     0.005 C 
ENDBRANCH   4   5
ENDBRANCH   3   4
ENDBRANCH   2   3
ENDBRANCH   1   2
BRANCH   1   7
HETATM    7  C   UNL     1       7.045   3.434   2.625  1.00  0.00     0.000 C 
BRANCH   7   8
HETATM    8  C   UNL     1       8.574   3.451   2.638  1.00  0.00     0.002 C 
BRANCH   8   9
HETATM    9  C   UNL     1       9.110   4.575   3.522  1.00  0.00     0.026 C 
BRANCH   9  10
HETATM   10  C   UNL     1      10.632   4.598   3.539  1.00  0.00     0.164 C 
BRANCH  10  11
HETATM   11  O   UNL     1      11.089   5.646   4.384  1.00  0.00    -0.401 OA
HETATM   12  H   UNL     1      10.745   6.482   4.026  1.00  0.00     0.209 HD
ENDBRANCH  10  11
ENDBRANCH   9  10
ENDBRANCH   8   9
ENDBRANCH   7   8
ENDBRANCH   1   7
TORSDOF 9
