REMARK  6 active torsions:
REMARK  status: ('A' for Active; 'I' for Inactive)
REMARK    1  A    between atoms: C_6  and  O_7 
REMARK    2  A    between atoms: O_7  and  P_8 
REMARK    3  A    between atoms: P_8  and  O_10 
REMARK    4  A    between atoms: P_8  and  O_17 
REMARK    5  A    between atoms: O_10  and  C_11 
REMARK    6  A    between atoms: O_17  and  C_18 
ROOT
HETATM    1  P   UNL     1       0.359   3.920  -0.191  1.00  0.00     0.492 P 
HETATM    2  O   UNL     1       0.012   3.747  -1.675  1.00  0.00    -0.226 OA
ENDROOT
BRANCH   1   3
HETATM    3  O   UNL     1       1.301   2.468  -0.194  1.00  0.00    -0.249 OA
BRANCH   3   4
HETATM    4  C   UNL     1       0.952   1.259  -0.785  1.00  0.00     0.081 A 
HETATM    5  C   UNL     1      -0.254   0.990  -1.440  1.00  0.00     0.037 A 
HETATM    6  C   UNL     1      -0.574  -0.302  -1.863  1.00  0.00     0.003 A 
HETATM    7  C   UNL     1       0.319  -1.343  -1.646  1.00  0.00     0.000 A 
HETATM    8  C   UNL     1       1.540  -1.085  -1.026  1.00  0.00     0.003 A 
HETATM    9  C   UNL     1       1.858   0.212  -0.602  1.00  0.00     0.037 A 
ENDBRANCH   3   4
ENDBRANCH   1   3
BRANCH   1  10
HETATM   10  O   UNL     1      -0.723   3.297   0.910  1.00  0.00    -0.249 OA
BRANCH  10  11
HETATM   11  C   UNL     1      -0.779   2.087   1.542  1.00  0.00     0.081 C 
HETATM   12  C   UNL     1       0.281   1.538   2.260  1.00  0.00     0.037 C 
HETATM   13  C   UNL     1       0.201   0.211   2.698  1.00  0.00     0.003 C 
HETATM   14  C   UNL     1      -0.956  -0.536   2.474  1.00  0.00     0.000 C 
HETATM   15  C   UNL     1      -2.055   0.054   1.855  1.00  0.00     0.003 C 
HETATM   16  C   UNL     1      -1.972   1.372   1.408  1.00  0.00     0.037 C 
ENDBRANCH  10  11
ENDBRANCH   1  10
BRANCH   1  17
HETATM   17  O   UNL     1      -0.582   5.371  -0.186  1.00  0.00    -0.249 OA
BRANCH  17  18
HETATM   18  C   UNL     1      -1.949   5.448  -0.360  1.00  0.00     0.081 A 
HETATM   19  C   UNL     1      -2.774   4.383  -0.720  1.00  0.00     0.037 A 
HETATM   20  C   UNL     1      -4.161   4.536  -0.781  1.00  0.00     0.003 A 
HETATM   21  C   UNL     1      -4.732   5.778  -0.525  1.00  0.00     0.000 A 
HETATM   22  C   UNL     1      -3.913   6.863  -0.218  1.00  0.00     0.003 A 
HETATM   23  C   UNL     1      -2.527   6.699  -0.132  1.00  0.00     0.037 A 
ENDBRANCH  17  18
ENDBRANCH   1  17
TORSDOF 6
