REMARK  18 active torsions:
REMARK  status: ('A' for Active; 'I' for Inactive)
REMARK    1  A    between atoms: C_1  and  C_3 
REMARK    2  A    between atoms: C_2  and  C_4 
REMARK    3  A    between atoms: C_3  and  O_7 
REMARK    4  A    between atoms: C_4  and  O_8 
REMARK    5  A    between atoms: O_7  and  C_21 
REMARK    6  A    between atoms: O_8  and  C_13 
REMARK    7  A    between atoms: C_13  and  C_14 
REMARK    8  A    between atoms: C_14  and  C_15 
REMARK    9  A    between atoms: C_15  and  C_16 
REMARK   10  A    between atoms: C_16  and  C_17 
REMARK   11  A    between atoms: C_17  and  C_18 
REMARK   12  A    between atoms: C_18  and  C_19 
REMARK   13  A    between atoms: C_21  and  C_22 
REMARK   14  A    between atoms: C_22  and  C_23 
REMARK   15  A    between atoms: C_23  and  C_24 
REMARK   16  A    between atoms: C_24  and  C_25 
REMARK   17  A    between atoms: C_25  and  C_26 
REMARK   18  A    between atoms: C_26  and  C_27 
ROOT
HETATM    1  C   UNL     1      -1.578  -0.120   0.029  1.00  0.00     0.055 A 
HETATM    2  C   UNL     1      -0.815  -1.297  -0.039  1.00  0.00     0.055 A 
HETATM    3  C   UNL     1      -0.924   1.127   0.010  1.00  0.00     0.018 A 
HETATM    4  C   UNL     1       0.589  -1.204  -0.095  1.00  0.00     0.018 A 
HETATM    5  C   UNL     1       0.470   1.202  -0.054  1.00  0.00     0.001 A 
HETATM    6  C   UNL     1       1.227   0.037  -0.099  1.00  0.00     0.001 A 
ENDROOT
BRANCH   1   7
HETATM    7  C   UNL     1      -3.044  -0.141   0.247  1.00  0.00     0.294 C 
HETATM    8  O   UNL     1      -3.613  -0.965   0.947  1.00  0.00    -0.259 OA
BRANCH   7   9
HETATM    9  O   UNL     1      -3.627   0.889  -0.421  1.00  0.00    -0.317 OA
BRANCH   9  10
HETATM   10  C   UNL     1      -5.062   0.909  -0.385  1.00  0.00     0.179 C 
BRANCH  10  11
HETATM   11  C   UNL     1      -5.569   2.352  -0.414  1.00  0.00     0.027 C 
BRANCH  11  12
HETATM   12  C   UNL     1      -7.096   2.374  -0.515  1.00  0.00     0.002 C 
BRANCH  12  13
HETATM   13  C   UNL     1      -7.683   3.787  -0.484  1.00  0.00     0.000 C 
BRANCH  13  14
HETATM   14  C   UNL     1      -9.208   3.736  -0.633  1.00  0.00     0.000 C 
BRANCH  14  15
HETATM   15  C   UNL     1      -9.838   5.128  -0.603  1.00  0.00    -0.000 C 
BRANCH  15  16
HETATM   16  C   UNL     1     -11.358   5.050  -0.767  1.00  0.00    -0.005 C 
HETATM   17  C   UNL     1     -11.997   6.430  -0.743  1.00  0.00     0.005 C 
ENDBRANCH  15  16
ENDBRANCH  14  15
ENDBRANCH  13  14
ENDBRANCH  12  13
ENDBRANCH  11  12
ENDBRANCH  10  11
ENDBRANCH   9  10
ENDBRANCH   7   9
ENDBRANCH   1   7
BRANCH   2  18
HETATM   18  C   UNL     1      -1.367  -2.673  -0.028  1.00  0.00     0.294 C 
HETATM   19  O   UNL     1      -0.769  -3.609   0.483  1.00  0.00    -0.259 OA
BRANCH  18  20
HETATM   20  O   UNL     1      -2.511  -2.757  -0.745  1.00  0.00    -0.317 OA
BRANCH  20  21
HETATM   21  C   UNL     1      -3.146  -4.047  -0.714  1.00  0.00     0.179 C 
BRANCH  21  22
HETATM   22  C   UNL     1      -4.656  -3.849  -0.809  1.00  0.00     0.027 C 
BRANCH  22  23
HETATM   23  C   UNL     1      -5.398  -5.184  -0.876  1.00  0.00     0.002 C 
BRANCH  23  24
HETATM   24  C   UNL     1      -6.912  -4.980  -0.983  1.00  0.00     0.000 C 
BRANCH  24  25
HETATM   25  C   UNL     1      -7.646  -6.316  -1.124  1.00  0.00     0.000 C 
BRANCH  25  26
HETATM   26  C   UNL     1      -9.156  -6.115  -1.266  1.00  0.00    -0.000 C 
BRANCH  26  27
HETATM   27  C   UNL     1      -9.879  -7.452  -1.432  1.00  0.00    -0.005 C 
HETATM   28  C   UNL     1     -11.381  -7.263  -1.581  1.00  0.00     0.005 C 
ENDBRANCH  26  27
ENDBRANCH  25  26
ENDBRANCH  24  25
ENDBRANCH  23  24
ENDBRANCH  22  23
ENDBRANCH  21  22
ENDBRANCH  20  21
ENDBRANCH  18  20
ENDBRANCH   2  18
TORSDOF 18
