REMARK  2 active torsions:
REMARK  status: ('A' for Active; 'I' for Inactive)
REMARK    1  A    between atoms: C_6  and  C_7 
REMARK    2  A    between atoms: C_7  and  C_9 
ROOT
HETATM    1  C   UNL     1       1.173   2.566  -0.078  1.00  0.00     0.192 C 
HETATM    2  O   UNL     1       2.398   2.640   0.005  1.00  0.00    -0.287 OA
ENDROOT
BRANCH   1   3
HETATM    3  C   UNL     1       0.534   1.224   0.006  1.00  0.00     0.015 A 
HETATM    4  C   UNL     1      -0.751   1.029   0.526  1.00  0.00     0.015 A 
HETATM    5  C   UNL     1      -1.292  -0.259   0.591  1.00  0.00     0.001 A 
HETATM    6  C   UNL     1      -0.545  -1.356   0.163  1.00  0.00     0.000 A 
HETATM    7  C   UNL     1       0.748  -1.172  -0.325  1.00  0.00     0.001 A 
HETATM    8  C   UNL     1       1.286   0.113  -0.402  1.00  0.00     0.015 A 
ENDBRANCH   1   3
BRANCH   1   9
HETATM    9  C   UNL     1       0.396   3.822  -0.256  1.00  0.00     0.015 A 
HETATM   10  C   UNL     1      -0.812   3.870  -0.961  1.00  0.00     0.015 A 
HETATM   11  C   UNL     1      -1.490   5.084  -1.106  1.00  0.00     0.001 A 
HETATM   12  C   UNL     1      -0.953   6.256  -0.572  1.00  0.00     0.000 A 
HETATM   13  C   UNL     1       0.266   6.220   0.103  1.00  0.00     0.001 A 
HETATM   14  C   UNL     1       0.940   5.008   0.258  1.00  0.00     0.015 A 
ENDBRANCH   1   9
TORSDOF 2
