REMARK  0 active torsions:
REMARK  status: ('A' for Active; 'I' for Inactive)
ROOT
HETATM    1 CL   UNL     1       0.952  -0.077   0.202  1.00  0.00    -0.083 Cl
HETATM    2  C   UNL     1       2.670  -0.030   0.027  1.00  0.00     0.055 A 
HETATM    3  C   UNL     1       3.384   1.172  -0.059  1.00  0.00     0.057 A 
HETATM    4 CL   UNL     1       2.609   2.715   0.003  1.00  0.00    -0.082 Cl
HETATM    5  C   UNL     1       4.775   1.150  -0.201  1.00  0.00     0.049 A 
HETATM    6  C   UNL     1       5.445  -0.071  -0.256  1.00  0.00     0.035 A 
HETATM    7 CL   UNL     1       7.156  -0.099  -0.429  1.00  0.00    -0.084 Cl
HETATM    8  C   UNL     1       4.741  -1.271  -0.171  1.00  0.00     0.025 A 
HETATM    9  C   UNL     1       3.351  -1.250  -0.029  1.00  0.00     0.027 A 
ENDROOT
TORSDOF 0
