REMARK  3 active torsions:
REMARK  status: ('A' for Active; 'I' for Inactive)
REMARK    1  A    between atoms: C_1  and  C_2 
REMARK    2  A    between atoms: C_5  and  O_6 
REMARK    3  A    between atoms: C_8  and  O_9 
ROOT
HETATM    1  C   UNL     1      -1.400  -0.073  -0.071  1.00  0.00     0.004 A 
HETATM    2  C   UNL     1      -0.789   1.190  -0.086  1.00  0.00     0.054 A 
HETATM    3  C   UNL     1       0.601   1.283  -0.083  1.00  0.00     0.102 A 
HETATM    4  C   UNL     1       1.356   0.103  -0.057  1.00  0.00     0.099 A 
HETATM    5  C   UNL     1       0.756  -1.152  -0.037  1.00  0.00     0.040 A 
HETATM    6  C   UNL     1      -0.634  -1.243  -0.046  1.00  0.00     0.017 A 
ENDROOT
BRANCH   1   7
HETATM    7  C   UNL     1      -2.873  -0.177  -0.088  1.00  0.00     0.270 C 
HETATM    8  O   UNL     1      -3.593   0.813  -0.104  1.00  0.00    -0.301 OA
ENDBRANCH   1   7
BRANCH   3   9
HETATM    9  O   UNL     1       1.336   2.440  -0.106  1.00  0.00    -0.353 OA
HETATM   10  C   UNL     1       0.602   3.659  -0.166  1.00  0.00     0.210 C 
ENDBRANCH   3   9
BRANCH   4  11
HETATM   11  O   UNL     1       2.723   0.161  -0.054  1.00  0.00    -0.358 OA
HETATM   12  H   UNL     1       2.937   1.115  -0.075  1.00  0.00     0.217 HD
ENDBRANCH   4  11
TORSDOF 3
