REMARK  2 active torsions:
REMARK  status: ('A' for Active; 'I' for Inactive)
REMARK    1  A    between atoms: C_6  and  N_7 
REMARK    2  A    between atoms: N_7  and  C_8 
ROOT
HETATM    1  N   UNL     1       0.980   2.511  -0.071  1.00  0.00    -0.356 N 
HETATM    2  H   UNL     1       1.989   2.572   0.006  1.00  0.00     0.166 HD
ENDROOT
BRANCH   1   3
HETATM    3  C   UNL     1       0.478   1.204   0.044  1.00  0.00     0.032 A 
HETATM    4  C   UNL     1      -0.829   0.921   0.457  1.00  0.00     0.029 A 
HETATM    5  C   UNL     1      -1.298  -0.395   0.520  1.00  0.00     0.002 A 
HETATM    6  C   UNL     1      -0.465  -1.450   0.160  1.00  0.00     0.000 A 
HETATM    7  C   UNL     1       0.836  -1.190  -0.261  1.00  0.00     0.002 A 
HETATM    8  C   UNL     1       1.300   0.127  -0.320  1.00  0.00     0.029 A 
ENDBRANCH   1   3
BRANCH   1   9
HETATM    9  C   UNL     1       0.348   3.750  -0.276  1.00  0.00     0.032 A 
HETATM   10  C   UNL     1      -0.904   3.876  -0.888  1.00  0.00     0.029 A 
HETATM   11  C   UNL     1      -1.512   5.127  -1.036  1.00  0.00     0.002 A 
HETATM   12  C   UNL     1      -0.877   6.273  -0.565  1.00  0.00     0.000 A 
HETATM   13  C   UNL     1       0.366   6.167   0.053  1.00  0.00     0.002 A 
HETATM   14  C   UNL     1       0.970   4.915   0.197  1.00  0.00     0.029 A 
ENDBRANCH   1   9
TORSDOF 2
