REMARK  4 active torsions:
REMARK  status: ('A' for Active; 'I' for Inactive)
REMARK    1  A    between atoms: C_6  and  O_7 
REMARK    2  A    between atoms: O_7  and  C_8 
REMARK    3  A    between atoms: C_8  and  C_9 
REMARK    4  A    between atoms: C_9  and  O_10 
ROOT
HETATM    1  C   UNL     1      -0.821   1.149  -0.014  1.00  0.00     0.037 A 
HETATM    2  C   UNL     1      -1.403  -0.121   0.038  1.00  0.00     0.003 A 
HETATM    3  C   UNL     1      -0.602  -1.262   0.038  1.00  0.00     0.000 A 
HETATM    4  C   UNL     1       0.784  -1.135  -0.011  1.00  0.00     0.003 A 
HETATM    5  C   UNL     1       1.364   0.134  -0.065  1.00  0.00     0.037 A 
HETATM    6  C   UNL     1       0.567   1.282  -0.070  1.00  0.00     0.068 A 
ENDROOT
BRANCH   6   7
HETATM    7  O   UNL     1       1.262   2.459  -0.136  1.00  0.00    -0.349 OA
BRANCH   7   8
HETATM    8  C   UNL     1       0.497   3.661  -0.162  1.00  0.00     0.201 C 
BRANCH   8   9
HETATM    9  C   UNL     1       1.449   4.844  -0.311  1.00  0.00     0.190 C 
BRANCH   9  10
HETATM   10  O   UNL     1       0.732   6.072  -0.365  1.00  0.00    -0.399 OA
HETATM   11  H   UNL     1       0.240   6.087  -1.204  1.00  0.00     0.209 HD
ENDBRANCH   9  10
ENDBRANCH   8   9
ENDBRANCH   7   8
ENDBRANCH   6   7
TORSDOF 4
