REMARK  12 active torsions:
REMARK  status: ('A' for Active; 'I' for Inactive)
REMARK    1  A    between atoms: C_2  and  C_3 
REMARK    2  A    between atoms: C_3  and  C_4 
REMARK    3  A    between atoms: C_4  and  O_5 
REMARK    4  A    between atoms: O_5  and  P_6 
REMARK    5  A    between atoms: P_6  and  O_8 
REMARK    6  A    between atoms: P_6  and  O_13 
REMARK    7  A    between atoms: O_8  and  C_9 
REMARK    8  A    between atoms: C_9  and  C_10 
REMARK    9  A    between atoms: C_10  and  C_11 
REMARK   10  A    between atoms: O_13  and  C_14 
REMARK   11  A    between atoms: C_14  and  C_15 
REMARK   12  A    between atoms: C_15  and  C_16 
ROOT
HETATM    1  P   UNL     1       6.837  -2.217  -1.640  1.00  0.00     0.477 P 
HETATM    2  O   UNL     1       6.795  -3.461  -2.535  1.00  0.00    -0.227 OA
ENDROOT
BRANCH   1   3
HETATM    3  O   UNL     1       5.106  -2.217  -1.640  1.00  0.00    -0.292 OA
BRANCH   3   4
HETATM    4  C   UNL     1       4.574  -1.412  -0.591  1.00  0.00     0.180 C 
BRANCH   4   5
HETATM    5  C   UNL     1       3.070  -1.267  -0.774  1.00  0.00     0.026 C 
BRANCH   5   6
HETATM    6  C   UNL     1       2.502  -0.194   0.152  1.00  0.00    -0.002 C 
HETATM    7  C   UNL     1       0.997  -0.056  -0.002  1.00  0.00     0.005 C 
ENDBRANCH   5   6
ENDBRANCH   4   5
ENDBRANCH   3   4
ENDBRANCH   1   3
BRANCH   1   8
HETATM    8  O   UNL     1       6.816  -0.845  -2.590  1.00  0.00    -0.292 OA
BRANCH   8   9
HETATM    9  C   UNL     1       5.867  -0.756  -3.655  1.00  0.00     0.180 C 
BRANCH   9  10
HETATM   10  C   UNL     1       6.002   0.558  -4.420  1.00  0.00     0.026 C 
BRANCH  10  11
HETATM   11  C   UNL     1       4.648   0.949  -5.028  1.00  0.00    -0.002 C 
HETATM   12  C   UNL     1       4.731   2.172  -5.923  1.00  0.00     0.005 C 
ENDBRANCH  10  11
ENDBRANCH   9  10
ENDBRANCH   8   9
ENDBRANCH   1   8
BRANCH   1  13
HETATM   13  O   UNL     1       8.566  -2.217  -1.640  1.00  0.00    -0.292 OA
BRANCH  13  14
HETATM   14  C   UNL     1       9.200  -2.306  -2.919  1.00  0.00     0.180 C 
BRANCH  14  15
HETATM   15  C   UNL     1      10.715  -2.219  -2.780  1.00  0.00     0.026 C 
BRANCH  15  16
HETATM   16  C   UNL     1      11.370  -2.251  -4.163  1.00  0.00    -0.002 C 
HETATM   17  C   UNL     1      12.886  -2.221  -4.085  1.00  0.00     0.005 C 
ENDBRANCH  15  16
ENDBRANCH  14  15
ENDBRANCH  13  14
ENDBRANCH   1  13
TORSDOF 12
