REMARK  0 active torsions:
REMARK  status: ('A' for Active; 'I' for Inactive)
ROOT
HETATM    1  C   UNL     1       2.413  -1.244  -0.000  1.00  0.00     0.038 A 
HETATM    2  C   UNL     1       3.401  -0.254  -0.000  1.00  0.00     0.003 A 
HETATM    3  C   UNL     1       3.064   1.102  -0.000  1.00  0.00     0.001 A 
HETATM    4  C   UNL     1       1.724   1.514  -0.000  1.00  0.00     0.015 A 
HETATM    5  C   UNL     1       0.713   0.534  -0.000  1.00  0.00     0.011 A 
HETATM    6  C   UNL     1      -0.713   0.538  -0.000  1.00  0.00     0.011 A 
HETATM    7  C   UNL     1      -1.718   1.524  -0.000  1.00  0.00     0.015 A 
HETATM    8  C   UNL     1      -3.061   1.120   0.000  1.00  0.00     0.001 A 
HETATM    9  C   UNL     1      -3.405  -0.234   0.000  1.00  0.00     0.003 A 
HETATM   10  C   UNL     1      -2.423  -1.230   0.000  1.00  0.00     0.038 A 
HETATM   11  C   UNL     1      -1.098  -0.798   0.000  1.00  0.00     0.087 A 
HETATM   12  O   UNL     1      -0.006  -1.612   0.000  1.00  0.00    -0.309 OA
HETATM   13  C   UNL     1       1.090  -0.805  -0.000  1.00  0.00     0.087 A 
ENDROOT
TORSDOF 0
