REMARK  3 active torsions:
REMARK  status: ('A' for Active; 'I' for Inactive)
REMARK    1  A    between atoms: C_2  and  N_3 
REMARK    2  A    between atoms: N_3  and  C_4 
REMARK       I    between atoms: N_3  and  C_6 
REMARK    3  A    between atoms: C_6  and  C_8 
ROOT
HETATM    1  C   UNL     1       4.726   2.212   2.272  1.00  0.00     0.032 A 
HETATM    2  C   UNL     1       4.446   3.576   2.175  1.00  0.00     0.017 A 
HETATM    3  C   UNL     1       4.966   4.455   3.125  1.00  0.00     0.002 A 
HETATM    4  C   UNL     1       5.793   3.979   4.146  1.00  0.00     0.007 A 
HETATM    5  C   UNL     1       6.118   2.619   4.224  1.00  0.00    -0.061 A 
HETATM    6  C   UNL     1       7.051   2.107   5.283  1.00  0.00     0.048 C 
HETATM    7  C   UNL     1       5.578   1.737   3.278  1.00  0.00     0.023 A 
ENDROOT
BRANCH   1   8
HETATM    8  C   UNL     1       4.212   1.247   1.269  1.00  0.00     0.253 C 
HETATM    9  N   UNL     1       2.806   1.098   1.060  1.00  0.00    -0.349 N 
HETATM   10  O   UNL     1       5.056   0.570   0.686  1.00  0.00    -0.267 OA
BRANCH   9  11
HETATM   11  C   UNL     1       2.509  -0.074   0.219  1.00  0.00     0.121 C 
HETATM   12  C   UNL     1       1.132  -0.234  -0.401  1.00  0.00     0.026 C 
ENDBRANCH   9  11
BRANCH   9  13
HETATM   13  C   UNL     1       1.900   1.565   2.126  1.00  0.00     0.121 C 
HETATM   14  C   UNL     1       0.397   1.472   1.941  1.00  0.00     0.026 C 
ENDBRANCH   9  13
ENDBRANCH   1   8
TORSDOF 3
