REMARK  0 active torsions:
REMARK  status: ('A' for Active; 'I' for Inactive)
ROOT
HETATM    1  O   UNL     1       1.185   0.125   0.267  1.00  0.00    -0.198 OA
HETATM    2  S   UNL     1       2.627  -0.066   0.147  1.00  0.00     0.287 S 
HETATM    3  C   UNL     1       3.280   1.276   1.050  1.00  0.00     0.097 A 
HETATM    4  C   UNL     1       3.131   2.630   0.841  1.00  0.00     0.026 A 
HETATM    5  C   UNL     1       3.781   3.477   1.740  1.00  0.00     0.002 A 
HETATM    6  C   UNL     1       4.544   2.947   2.802  1.00  0.00     0.001 A 
HETATM    7  C   UNL     1       4.668   1.562   2.976  1.00  0.00     0.019 A 
HETATM    8  C   UNL     1       4.019   0.736   2.076  1.00  0.00     0.058 A 
HETATM    9  C   UNL     1       3.991  -0.743   2.038  1.00  0.00     0.289 A 
HETATM   10  N   UNL     1       3.261  -1.246   1.025  1.00  0.00    -0.118 NA
HETATM   11  O   UNL     1       4.607  -1.373   2.893  1.00  0.00    -0.265 OA
HETATM   12  O   UNL     1       3.191   0.124  -1.184  1.00  0.00    -0.198 OA
ENDROOT
TORSDOF 0
