REMARK  3 active torsions:
REMARK  status: ('A' for Active; 'I' for Inactive)
REMARK    1  A    between atoms: O_1  and  C_2 
REMARK    2  A    between atoms: C_2  and  CA_3 
REMARK    3  A    between atoms: CA_3  and  N_4 
ROOT
ATOM      1  CA  GLY A   1       3.035   0.099  -1.341  1.00  0.00     0.292 C 
ENDROOT
BRANCH   1   2
ATOM      2  C   GLY A   1       2.485  -0.019   0.082  1.00  0.00     0.194 C 
BRANCH   2   3
ATOM      3  O   GLY A   1       1.063   0.039   0.050  1.00  0.00    -0.399 OA
ATOM      4  H   GLY A   1       0.758  -0.096   0.963  1.00  0.00     0.209 HD
ENDBRANCH   2   3
ENDBRANCH   1   2
BRANCH   1   5
ATOM      5  N   GLY A   1       4.497   0.110  -1.368  1.00  0.00     0.080 N 
ATOM      6  H1  GLY A   1       4.837   0.954  -0.910  1.00  0.00     0.312 HD
ATOM      7  H2  GLY A   1       4.807   0.174  -2.338  1.00  0.00     0.312 HD
ENDBRANCH   1   5
TORSDOF 3
