REMARK  9 active torsions:
REMARK  status: ('A' for Active; 'I' for Inactive)
REMARK    1  A    between atoms: C_2  and  O_3 
REMARK    2  A    between atoms: O_3  and  P_4 
REMARK    3  A    between atoms: P_4  and  O_5 
REMARK    4  A    between atoms: P_4  and  S_9 
REMARK    5  A    between atoms: O_5  and  C_6 
REMARK    6  A    between atoms: S_9  and  C_10 
REMARK    7  A    between atoms: C_10  and  C_11 
REMARK    8  A    between atoms: C_11  and  S_12 
REMARK    9  A    between atoms: S_12  and  C_13 
ROOT
HETATM    1  P   UNL     1       4.787   0.878   0.907  1.00  0.00     0.248 P 
HETATM    2  S   UNL     1       4.731   2.557  -0.221  1.00  0.00    -0.026 SA
ENDROOT
BRANCH   1   3
HETATM    3  O   UNL     1       3.057   0.878   0.907  1.00  0.00    -0.327 OA
BRANCH   3   4
HETATM    4  C   UNL     1       2.291   0.306  -0.151  1.00  0.00     0.172 C 
HETATM    5  C   UNL     1       0.833   0.665   0.066  1.00  0.00     0.034 C 
ENDBRANCH   3   4
ENDBRANCH   1   3
BRANCH   1   6
HETATM    6  O   UNL     1       4.761  -0.547   0.065  1.00  0.00    -0.327 OA
BRANCH   6   7
HETATM    7  C   UNL     1       4.805  -1.734   0.854  1.00  0.00     0.172 C 
HETATM    8  C   UNL     1       4.790  -2.936  -0.066  1.00  0.00     0.034 C 
ENDBRANCH   6   7
ENDBRANCH   1   6
BRANCH   1   9
HETATM    9  S   UNL     1       6.907   0.878   0.907  1.00  0.00    -0.073 SA
BRANCH   9  10
HETATM   10  C   UNL     1       7.466   0.600  -0.809  1.00  0.00     0.094 C 
BRANCH  10  11
HETATM   11  C   UNL     1       8.987   0.691  -0.895  1.00  0.00     0.084 C 
BRANCH  11  12
HETATM   12  S   UNL     1       9.512   0.517  -2.637  1.00  0.00    -0.169 SA
BRANCH  12  13
HETATM   13  C   UNL     1      11.296   0.790  -2.423  1.00  0.00     0.069 C 
HETATM   14  C   UNL     1      11.978   0.842  -3.779  1.00  0.00     0.016 C 
ENDBRANCH  12  13
ENDBRANCH  11  12
ENDBRANCH  10  11
ENDBRANCH   9  10
ENDBRANCH   1   9
TORSDOF 9
