REMARK  2 active torsions:
REMARK  status: ('A' for Active; 'I' for Inactive)
REMARK    1  A    between atoms: N_8  and  C_9 
REMARK    2  A    between atoms: C_9  and  C_11 
ROOT
HETATM    1 BR   UNL     1       1.062   0.064  -0.355  1.00  0.00    -0.043 Br
HETATM    2  C   UNL     1       2.921  -0.091  -0.193  1.00  0.00     0.101 A 
HETATM    3  C   UNL     1       3.577  -1.252  -0.042  1.00  0.00     0.033 A 
HETATM    4  C   UNL     1       2.959  -2.624   0.002  1.00  0.00     0.070 C 
HETATM    5  N   UNL     1       4.936  -1.240   0.114  1.00  0.00    -0.311 N 
HETATM    6  C   UNL     1       5.724  -0.128   0.203  1.00  0.00     0.330 A 
HETATM    7  O   UNL     1       6.916  -0.307   0.440  1.00  0.00    -0.246 OA
HETATM    8  N   UNL     1       5.096   1.088   0.013  1.00  0.00    -0.261 N 
HETATM    9  C   UNL     1       3.722   1.178  -0.235  1.00  0.00     0.271 A 
HETATM   10  O   UNL     1       3.159   2.249  -0.469  1.00  0.00    -0.266 OA
HETATM   11  H   UNL     1       5.443  -2.111   0.239  1.00  0.00     0.170 HD
ENDROOT
BRANCH   8  12
HETATM   12  C   UNL     1       5.822   2.383   0.137  1.00  0.00     0.093 C 
HETATM   13  C   UNL     1       5.463   3.060   1.471  1.00  0.00     0.033 C 
BRANCH  12  14
HETATM   14  C   UNL     1       7.355   2.327  -0.051  1.00  0.00     0.021 C 
HETATM   15  C   UNL     1       8.018   3.693  -0.177  1.00  0.00     0.007 C 
ENDBRANCH  12  14
ENDBRANCH   8  12
TORSDOF 2
