REMARK  1 active torsions:
REMARK  status: ('A' for Active; 'I' for Inactive)
REMARK    1  A    between atoms: O_1  and  C_2 
ROOT
HETATM    1  C   UNL     1       2.380   0.111   0.007  1.00  0.00     0.077 A 
HETATM    2  C   UNL     1       3.083  -1.104   0.006  1.00  0.00    -0.028 A 
HETATM    3  C   UNL     1       2.450  -2.467  -0.002  1.00  0.00     0.051 C 
HETATM    4  C   UNL     1       4.491  -1.062   0.012  1.00  0.00     0.016 A 
HETATM    5  C   UNL     1       5.188   0.151   0.017  1.00  0.00    -0.061 A 
HETATM    6  C   UNL     1       6.687   0.183   0.022  1.00  0.00     0.048 C 
HETATM    7  C   UNL     1       4.463   1.345   0.016  1.00  0.00     0.016 A 
HETATM    8  C   UNL     1       3.060   1.339   0.011  1.00  0.00    -0.028 A 
HETATM    9  C   UNL     1       2.344   2.662   0.011  1.00  0.00     0.051 C 
ENDROOT
BRANCH   1  10
HETATM   10  O   UNL     1       1.014   0.170   0.003  1.00  0.00    -0.360 OA
HETATM   11  H   UNL     1       0.638  -0.719   0.039  1.00  0.00     0.217 HD
ENDBRANCH   1  10
TORSDOF 1
