REMARK  0 active torsions:
REMARK  status: ('A' for Active; 'I' for Inactive)
ROOT
HETATM    1 CL   UNL     1       1.135   0.022   0.284  1.00  0.00    -0.084 Cl
HETATM    2  C   UNL     1       2.846   0.044   0.110  1.00  0.00     0.035 A 
HETATM    3  C   UNL     1       3.517   1.262   0.028  1.00  0.00     0.047 A 
HETATM    4  C   UNL     1       4.903   1.268  -0.113  1.00  0.00     0.035 A 
HETATM    5 CL   UNL     1       5.744   2.766  -0.216  1.00  0.00    -0.084 Cl
HETATM    6  C   UNL     1       5.616   0.070  -0.173  1.00  0.00     0.024 A 
HETATM    7  C   UNL     1       4.938  -1.147  -0.090  1.00  0.00     0.003 A 
HETATM    8  C   UNL     1       3.550  -1.160   0.051  1.00  0.00     0.024 A 
ENDROOT
TORSDOF 0
