REMARK  2 active torsions:
REMARK  status: ('A' for Active; 'I' for Inactive)
REMARK    1  A    between atoms: C_8  and  N_9 
REMARK       I    between atoms: N_9  and  C_10 
REMARK    2  A    between atoms: C_10  and  C_12 
ROOT
HETATM    1  C   UNL     1      -0.963   1.033  -0.036  1.00  0.00     0.055 A 
HETATM    2  C   UNL     1      -1.434  -0.287  -0.001  1.00  0.00     0.058 A 
HETATM    3 CL   UNL     1      -3.146  -0.529   0.034  1.00  0.00    -0.082 Cl
HETATM    4  C   UNL     1      -0.531  -1.352  -0.002  1.00  0.00     0.055 A 
HETATM    5 CL   UNL     1      -1.038  -3.003   0.028  1.00  0.00    -0.083 Cl
HETATM    6  C   UNL     1       0.840  -1.093  -0.031  1.00  0.00     0.028 A 
HETATM    7  C   UNL     1       1.306   0.226  -0.067  1.00  0.00     0.031 A 
HETATM    8  C   UNL     1       0.408   1.301  -0.074  1.00  0.00     0.036 A 
ENDROOT
BRANCH   8   9
HETATM    9  N   UNL     1       0.956   2.600  -0.136  1.00  0.00    -0.327 N 
HETATM   10  C   UNL     1       0.263   3.801  -0.152  1.00  0.00     0.221 C 
HETATM   11  O   UNL     1      -0.952   3.937  -0.064  1.00  0.00    -0.273 OA
HETATM   12  H   UNL     1       1.966   2.660  -0.181  1.00  0.00     0.169 HD
BRANCH  10  13
HETATM   13  C   UNL     1       1.198   4.990  -0.304  1.00  0.00     0.098 C 
HETATM   14  C   UNL     1       0.445   6.310  -0.332  1.00  0.00     0.014 C 
ENDBRANCH  10  13
ENDBRANCH   8   9
TORSDOF 2
