REMARK  1 active torsions:
REMARK  status: ('A' for Active; 'I' for Inactive)
REMARK    1  A    between atoms: C_4  and  O_5 
ROOT
HETATM    1  C   UNL     1      -0.690   1.191   0.000  1.00  0.00     0.044 A 
HETATM    2  C   UNL     1      -1.382  -0.022  -0.000  1.00  0.00     0.046 A 
HETATM    3 BR   UNL     1      -3.277   0.009  -0.002  1.00  0.00    -0.048 Br
HETATM    4  C   UNL     1      -0.686  -1.235   0.000  1.00  0.00     0.100 A 
HETATM    5  C   UNL     1       0.712  -1.229   0.001  1.00  0.00     0.046 A 
HETATM    6 BR   UNL     1       1.711  -2.841   0.002  1.00  0.00    -0.048 Br
HETATM    7  C   UNL     1       1.410  -0.018   0.002  1.00  0.00     0.044 A 
HETATM    8  C   UNL     1       0.709   1.193   0.001  1.00  0.00     0.047 A 
HETATM    9  C   UNL     1       1.424   2.436   0.002  1.00  0.00     0.099 C 
HETATM   10  N   UNL     1       1.998   3.443   0.003  1.00  0.00    -0.191 NA
ENDROOT
BRANCH   4  11
HETATM   11  O   UNL     1      -1.355  -2.430   0.000  1.00  0.00    -0.358 OA
HETATM   12  H   UNL     1      -2.312  -2.246   0.000  1.00  0.00     0.217 HD
ENDBRANCH   4  11
TORSDOF 1
