REMARK  6 active torsions:
REMARK  status: ('A' for Active; 'I' for Inactive)
REMARK    1  A    between atoms: C_2  and  O_3 
REMARK    2  A    between atoms: O_3  and  P_4 
REMARK    3  A    between atoms: P_4  and  O_6 
REMARK    4  A    between atoms: P_4  and  C_16 
REMARK    5  A    between atoms: O_6  and  C_7 
REMARK    6  A    between atoms: C_10  and  N_13 
ROOT
HETATM    1  P   UNL     1       4.716  -0.205  -1.415  1.00  0.00     0.225 P 
HETATM    2  S   UNL     1       4.661  -2.151  -2.049  1.00  0.00    -0.032 SA
ENDROOT
BRANCH   1   3
HETATM    3  O   UNL     1       2.986  -0.205  -1.415  1.00  0.00    -0.331 OA
BRANCH   3   4
HETATM    4  C   UNL     1       2.438  -0.056  -0.112  1.00  0.00     0.172 C 
HETATM    5  C   UNL     1       0.928  -0.059  -0.203  1.00  0.00     0.034 C 
ENDBRANCH   3   4
ENDBRANCH   1   3
BRANCH   1   6
HETATM    6  O   UNL     1       4.693   0.886  -2.687  1.00  0.00    -0.289 OA
BRANCH   6   7
HETATM    7  C   UNL     1       3.617   1.247  -3.460  1.00  0.00     0.077 A 
HETATM    8  C   UNL     1       2.807   0.323  -4.123  1.00  0.00     0.039 A 
HETATM    9  C   UNL     1       1.670   0.751  -4.816  1.00  0.00     0.039 A 
HETATM   10  C   UNL     1       1.378   2.118  -4.880  1.00  0.00     0.103 A 
HETATM   11  C   UNL     1       2.228   3.054  -4.276  1.00  0.00     0.039 A 
HETATM   12  C   UNL     1       3.351   2.613  -3.570  1.00  0.00     0.039 A 
BRANCH  10  13
HETATM   13  N   UNL     1       0.166   2.571  -5.575  1.00  0.00    -0.116 N 
HETATM   14  O   UNL     1      -0.582   1.710  -6.058  1.00  0.00    -0.532 OA
HETATM   15  O   UNL     1      -0.042   3.793  -5.630  1.00  0.00    -0.532 OA
ENDBRANCH  10  13
ENDBRANCH   6   7
ENDBRANCH   1   6
BRANCH   1  16
HETATM   16  C   UNL     1       6.546  -0.205  -1.415  1.00  0.00     0.029 A 
HETATM   17  C   UNL     1       7.326   0.189  -2.522  1.00  0.00     0.017 A 
HETATM   18  C   UNL     1       8.720   0.129  -2.484  1.00  0.00     0.001 A 
HETATM   19  C   UNL     1       9.365  -0.341  -1.345  1.00  0.00     0.000 A 
HETATM   20  C   UNL     1       8.618  -0.736  -0.237  1.00  0.00     0.001 A 
HETATM   21  C   UNL     1       7.222  -0.657  -0.265  1.00  0.00     0.017 A 
ENDBRANCH   1  16
TORSDOF 6
