REMARK  0 active torsions:
REMARK  status: ('A' for Active; 'I' for Inactive)
ROOT
HETATM    1  N   UNL     1      -0.677   1.178  -0.002  1.00  0.00    -0.221 NA
HETATM    2  C   UNL     1      -1.316  -0.010  -0.001  1.00  0.00     0.151 A 
HETATM    3 CL   UNL     1      -3.028   0.173  -0.001  1.00  0.00    -0.060 Cl
HETATM    4  C   UNL     1      -0.678  -1.246   0.000  1.00  0.00     0.098 A 
HETATM    5 CL   UNL     1      -1.586  -2.720   0.001  1.00  0.00    -0.079 Cl
HETATM    6  C   UNL     1       0.725  -1.241   0.000  1.00  0.00     0.084 A 
HETATM    7 CL   UNL     1       1.598  -2.748   0.001  1.00  0.00    -0.080 Cl
HETATM    8  C   UNL     1       1.427  -0.026  -0.000  1.00  0.00     0.098 A 
HETATM    9 CL   UNL     1       3.158   0.029  -0.000  1.00  0.00    -0.079 Cl
HETATM   10  C   UNL     1       0.672   1.142  -0.001  1.00  0.00     0.151 A 
HETATM   11 CL   UNL     1       1.364   2.719  -0.002  1.00  0.00    -0.060 Cl
ENDROOT
TORSDOF 0
