REMARK  1 active torsions:
REMARK  status: ('A' for Active; 'I' for Inactive)
REMARK    1  A    between atoms: O_1  and  C_2 
ROOT
HETATM    1  C   UNL     1       2.350   0.001   0.190  1.00  0.00     0.078 A 
HETATM    2  C   UNL     1       3.015   1.244   0.229  1.00  0.00    -0.022 A 
HETATM    3  C   UNL     1       2.278   2.521   0.535  1.00  0.00     0.052 C 
HETATM    4  C   UNL     1       4.407   1.269  -0.019  1.00  0.00    -0.053 A 
HETATM    5  C   UNL     1       5.225   2.533  -0.048  1.00  0.00     0.049 C 
HETATM    6  C   UNL     1       5.090   0.062  -0.243  1.00  0.00     0.008 A 
HETATM    7  C   UNL     1       4.416  -1.157  -0.235  1.00  0.00     0.010 A 
HETATM    8  C   UNL     1       3.035  -1.202  -0.030  1.00  0.00    -0.028 A 
HETATM    9  C   UNL     1       2.347  -2.537  -0.016  1.00  0.00     0.051 C 
ENDROOT
BRANCH   1  10
HETATM   10  O   UNL     1       0.993  -0.081   0.362  1.00  0.00    -0.360 OA
HETATM   11  H   UNL     1       0.594   0.706  -0.040  1.00  0.00     0.217 HD
ENDBRANCH   1  10
TORSDOF 1
