REMARK  3 active torsions:
REMARK  status: ('A' for Active; 'I' for Inactive)
REMARK    1  A    between atoms: S_2  and  C_3 
REMARK    2  A    between atoms: N_5  and  O_6 
REMARK    3  A    between atoms: O_6  and  C_7 
REMARK       I    between atoms: C_7  and  N_9 
ROOT
HETATM    1  O   UNL     1       5.555   0.903   0.078  1.00  0.00    -0.155 OA
ENDROOT
BRANCH   1   2
HETATM    2  N   UNL     1       4.676   2.002   0.129  1.00  0.00    -0.121 NA
HETATM    3  C   UNL     1       3.424   1.660   0.113  1.00  0.00     0.094 C 
HETATM    4  C   UNL     1       2.431   2.793   0.166  1.00  0.00     0.081 C 
BRANCH   3   5
HETATM    5  S   UNL     1       2.882  -0.012   0.036  1.00  0.00    -0.117 SA
HETATM    6  C   UNL     1       1.088   0.065   0.039  1.00  0.00     0.097 C 
ENDBRANCH   3   5
ENDBRANCH   1   2
BRANCH   1   7
HETATM    7  C   UNL     1       6.859   1.331   0.098  1.00  0.00     0.384 C 
HETATM    8  O   UNL     1       7.241   2.494   0.152  1.00  0.00    -0.236 OA
HETATM    9  N   UNL     1       7.696   0.247   0.048  1.00  0.00    -0.340 N 
HETATM   10  C   UNL     1       9.129   0.362   0.053  1.00  0.00     0.151 C 
HETATM   11  H   UNL     1       7.256  -0.661   0.006  1.00  0.00     0.164 HD
ENDBRANCH   1   7
TORSDOF 3
