REMARK  7 active torsions:
REMARK  status: ('A' for Active; 'I' for Inactive)
REMARK    1  A    between atoms: C_4  and  O_5 
REMARK    2  A    between atoms: O_5  and  C_6 
REMARK    3  A    between atoms: C_13  and  C_14 
REMARK    4  A    between atoms: C_14  and  O_15 
REMARK    5  A    between atoms: O_15  and  C_16 
REMARK    6  A    between atoms: C_16  and  C_18 
REMARK    7  A    between atoms: C_22  and  C_23 
ROOT
HETATM    1  C   UNL     1      -1.446   0.026  -0.035  1.00  0.00     0.009 C 
HETATM    2  C   UNL     1      -0.653   1.165  -0.172  1.00  0.00     0.003 C 
HETATM    3  C   UNL     1       0.738   1.052  -0.124  1.00  0.00     0.037 C 
HETATM    4  C   UNL     1       1.346  -0.182   0.124  1.00  0.00     0.076 C 
HETATM    5  C   UNL     1       0.534  -1.277   0.398  1.00  0.00     0.046 C 
HETATM    6  C   UNL     1      -0.858  -1.216   0.208  1.00  0.00    -0.031 C 
ENDROOT
BRANCH   6   7
HETATM    7  C   UNL     1      -1.616  -2.525   0.167  1.00  0.00     0.217 C 
BRANCH   7   8
HETATM    8  O   UNL     1      -3.015  -2.353  -0.075  1.00  0.00    -0.317 OA
BRANCH   8   9
HETATM    9  C   UNL     1      -3.615  -3.478  -0.551  1.00  0.00     0.264 C 
HETATM   10  O   UNL     1      -3.071  -4.548  -0.765  1.00  0.00    -0.265 OA
BRANCH   9  11
HETATM   11  C   UNL     1      -5.081  -3.314  -0.685  1.00  0.00     0.102 A 
HETATM   12  C   UNL     1      -5.819  -3.641  -1.982  1.00  0.00    -0.027 A 
HETATM   13  C   UNL     1      -5.050  -4.067  -3.212  1.00  0.00     0.016 C 
HETATM   14  C   UNL     1      -7.168  -4.316  -1.873  1.00  0.00     0.016 C 
HETATM   15  C   UNL     1      -5.748  -2.210  -1.472  1.00  0.00     0.034 A 
BRANCH  15  16
HETATM   16  C   UNL     1      -4.973  -1.175  -2.178  1.00  0.00     0.016 C 
HETATM   17  C   UNL     1      -4.840   0.116  -1.834  1.00  0.00     0.100 C 
HETATM   18 CL   UNL     1      -5.576   0.778  -0.419  1.00  0.00    -0.071 Cl
HETATM   19 CL   UNL     1      -3.897   1.185  -2.812  1.00  0.00    -0.071 Cl
ENDBRANCH  15  16
ENDBRANCH   9  11
ENDBRANCH   8   9
ENDBRANCH   7   8
ENDBRANCH   6   7
BRANCH   4  20
HETATM   20  O   UNL     1       2.717  -0.158   0.127  1.00  0.00    -0.311 OA
BRANCH  20  21
HETATM   21  C   UNL     1       3.530  -1.221  -0.193  1.00  0.00     0.076 A 
HETATM   22  C   UNL     1       4.895  -0.906  -0.141  1.00  0.00     0.037 A 
HETATM   23  C   UNL     1       5.873  -1.879  -0.366  1.00  0.00     0.003 A 
HETATM   24  C   UNL     1       5.497  -3.193  -0.623  1.00  0.00     0.000 A 
HETATM   25  C   UNL     1       4.148  -3.511  -0.724  1.00  0.00     0.003 A 
HETATM   26  C   UNL     1       3.173  -2.519  -0.557  1.00  0.00     0.037 A 
ENDBRANCH  20  21
ENDBRANCH   4  20
TORSDOF 7
