REMARK  4 active torsions:
REMARK  status: ('A' for Active; 'I' for Inactive)
REMARK    1  A    between atoms: C_5  and  O_9 
REMARK    2  A    between atoms: C_7  and  O_8 
REMARK    3  A    between atoms: C_12  and  C_13 
REMARK    4  A    between atoms: C_16  and  O_19 
ROOT
HETATM    1  C   UNL     1      -1.137   1.546  -0.004  1.00  0.00     0.200 A 
HETATM    2  C   UNL     1       0.114   0.770   0.018  1.00  0.00     0.082 A 
HETATM    3  C   UNL     1       0.039  -0.617   0.047  1.00  0.00     0.094 A 
HETATM    4  C   UNL     1       1.202  -1.392   0.041  1.00  0.00     0.074 A 
HETATM    5  C   UNL     1       2.442  -0.759   0.015  1.00  0.00     0.071 A 
HETATM    6  C   UNL     1       2.534   0.629   0.001  1.00  0.00     0.074 A 
HETATM    7  C   UNL     1       1.370   1.392   0.001  1.00  0.00     0.085 A 
HETATM    8  O   UNL     1      -1.153  -1.284   0.087  1.00  0.00    -0.321 OA
HETATM    9  C   UNL     1      -2.310  -0.541   0.068  1.00  0.00     0.159 A 
HETATM   10  C   UNL     1      -2.441   0.799   0.013  1.00  0.00     0.048 A 
HETATM   11  O   UNL     1      -1.042   2.771  -0.045  1.00  0.00    -0.286 OA
ENDROOT
BRANCH  10  12
HETATM   12  C   UNL     1      -3.787   1.462  -0.045  1.00  0.00    -0.020 A 
HETATM   13  C   UNL     1      -4.978   0.725  -0.227  1.00  0.00     0.015 A 
HETATM   14  C   UNL     1      -6.233   1.345  -0.330  1.00  0.00     0.037 A 
HETATM   15  C   UNL     1      -6.322   2.725  -0.260  1.00  0.00     0.065 A 
HETATM   16  C   UNL     1      -5.184   3.485  -0.065  1.00  0.00     0.037 A 
HETATM   17  C   UNL     1      -3.935   2.858   0.049  1.00  0.00     0.015 A 
BRANCH  15  18
HETATM   18  O   UNL     1      -7.512   3.374  -0.385  1.00  0.00    -0.361 OA
HETATM   19  H   UNL     1      -8.203   2.725  -0.594  1.00  0.00     0.217 HD
ENDBRANCH  15  18
ENDBRANCH  10  12
BRANCH   7  20
HETATM   20  O   UNL     1       1.530   2.752  -0.017  1.00  0.00    -0.360 OA
HETATM   21  H   UNL     1       0.635   3.162  -0.026  1.00  0.00     0.217 HD
ENDBRANCH   7  20
BRANCH   5  22
HETATM   22  O   UNL     1       3.604  -1.471   0.005  1.00  0.00    -0.361 OA
HETATM   23  H   UNL     1       3.399  -2.421   0.005  1.00  0.00     0.217 HD
ENDBRANCH   5  22
TORSDOF 4
