REMARK  8 active torsions:
REMARK  status: ('A' for Active; 'I' for Inactive)
REMARK    1  A    between atoms: C_1  and  O_15 
REMARK    2  A    between atoms: C_4  and  C_7 
REMARK    3  A    between atoms: C_7  and  C_8 
REMARK    4  A    between atoms: C_8  and  C_9 
REMARK    5  A    between atoms: C_9  and  C_10 
REMARK    6  A    between atoms: C_10  and  C_11 
REMARK    7  A    between atoms: C_11  and  C_12 
REMARK    8  A    between atoms: C_12  and  C_13 
ROOT
HETATM    1  C   UNL     1      -1.552   0.034   0.006  1.00  0.00     0.065 A 
HETATM    2  C   UNL     1      -0.862   1.239  -0.050  1.00  0.00     0.037 A 
HETATM    3  C   UNL     1       0.535   1.230  -0.098  1.00  0.00     0.010 A 
HETATM    4  C   UNL     1       1.252   0.021  -0.093  1.00  0.00    -0.058 A 
HETATM    5  C   UNL     1       0.529  -1.179  -0.026  1.00  0.00     0.010 A 
HETATM    6  C   UNL     1      -0.867  -1.172   0.022  1.00  0.00     0.037 A 
ENDROOT
BRANCH   4   7
HETATM    7  C   UNL     1       2.766   0.081  -0.169  1.00  0.00     0.038 C 
BRANCH   7   8
HETATM    8  C   UNL     1       3.486  -1.271  -0.184  1.00  0.00     0.005 C 
BRANCH   8   9
HETATM    9  C   UNL     1       5.003  -1.131  -0.327  1.00  0.00     0.000 C 
BRANCH   9  10
HETATM   10  C   UNL     1       5.653  -2.516  -0.324  1.00  0.00     0.000 C 
BRANCH  10  11
HETATM   11  C   UNL     1       7.170  -2.453  -0.499  1.00  0.00     0.000 C 
BRANCH  11  12
HETATM   12  C   UNL     1       7.768  -3.862  -0.478  1.00  0.00    -0.000 C 
BRANCH  12  13
HETATM   13  C   UNL     1       9.284  -3.839  -0.652  1.00  0.00    -0.005 C 
HETATM   14  C   UNL     1       9.862  -5.246  -0.622  1.00  0.00     0.005 C 
ENDBRANCH  12  13
ENDBRANCH  11  12
ENDBRANCH  10  11
ENDBRANCH   9  10
ENDBRANCH   8   9
ENDBRANCH   7   8
ENDBRANCH   4   7
BRANCH   1  15
HETATM   15  O   UNL     1      -2.914  -0.008   0.044  1.00  0.00    -0.361 OA
HETATM   16  H   UNL     1      -3.251   0.901  -0.005  1.00  0.00     0.217 HD
ENDBRANCH   1  15
TORSDOF 8
