REMARK  5 active torsions:
REMARK  status: ('A' for Active; 'I' for Inactive)
REMARK    1  A    between atoms: C_1  and  C_2 
REMARK    2  A    between atoms: C_2  and  C_3 
REMARK    3  A    between atoms: C_2  and  C_10 
REMARK    4  A    between atoms: C_6  and  O_9 
REMARK    5  A    between atoms: C_13  and  O_16 
ROOT
HETATM    1  C   UNL     1       0.347  -0.651   1.164  1.00  0.00     0.106 C 
ENDROOT
BRANCH   1   2
HETATM    2  C   UNL     1       0.932  -0.214  -0.245  1.00  0.00     0.200 C 
HETATM    3 CL   UNL     1       0.823   1.579  -0.516  1.00  0.00    -0.083 Cl
HETATM    4 CL   UNL     1       0.106  -1.008  -1.634  1.00  0.00    -0.083 Cl
HETATM    5 CL   UNL     1       2.712  -0.559  -0.395  1.00  0.00    -0.083 Cl
ENDBRANCH   1   2
BRANCH   1   6
HETATM    6  C   UNL     1      -1.193  -0.526   1.306  1.00  0.00    -0.045 A 
HETATM    7  C   UNL     1      -2.055  -1.627   1.464  1.00  0.00     0.011 A 
HETATM    8  C   UNL     1      -3.448  -1.476   1.474  1.00  0.00     0.037 A 
HETATM    9  C   UNL     1      -4.004  -0.215   1.346  1.00  0.00     0.065 A 
HETATM   10  C   UNL     1      -3.188   0.901   1.264  1.00  0.00     0.037 A 
HETATM   11  C   UNL     1      -1.797   0.746   1.265  1.00  0.00     0.011 A 
BRANCH   9  12
HETATM   12  O   UNL     1      -5.352  -0.026   1.305  1.00  0.00    -0.361 OA
HETATM   13  H   UNL     1      -5.784  -0.896   1.263  1.00  0.00     0.217 HD
ENDBRANCH   9  12
ENDBRANCH   1   6
BRANCH   1  14
HETATM   14  C   UNL     1       0.943  -1.996   1.640  1.00  0.00    -0.045 A 
HETATM   15  C   UNL     1       1.841  -2.014   2.724  1.00  0.00     0.011 A 
HETATM   16  C   UNL     1       2.481  -3.197   3.110  1.00  0.00     0.037 A 
HETATM   17  C   UNL     1       2.211  -4.378   2.428  1.00  0.00     0.065 A 
HETATM   18  C   UNL     1       1.320  -4.392   1.367  1.00  0.00     0.037 A 
HETATM   19  C   UNL     1       0.704  -3.207   0.962  1.00  0.00     0.011 A 
BRANCH  17  20
HETATM   20  O   UNL     1       2.816  -5.552   2.763  1.00  0.00    -0.361 OA
HETATM   21  H   UNL     1       3.470  -5.378   3.459  1.00  0.00     0.217 HD
ENDBRANCH  17  20
ENDBRANCH   1  14
TORSDOF 5
