REMARK  3 active torsions:
REMARK  status: ('A' for Active; 'I' for Inactive)
REMARK    1  A    between atoms: C_1  and  C_5 
REMARK    2  A    between atoms: C_4  and  O_8 
REMARK    3  A    between atoms: C_5  and  C_9 
ROOT
HETATM    1  C   UNL     1      -1.306  -0.060  -0.107  1.00  0.00    -0.054 A 
HETATM    2  C   UNL     1      -0.668   1.160   0.172  1.00  0.00     0.010 A 
HETATM    3  C   UNL     1      -0.492  -1.179  -0.358  1.00  0.00     0.010 A 
HETATM    4  C   UNL     1       1.501   0.128  -0.029  1.00  0.00     0.065 A 
HETATM    5  C   UNL     1       0.727   1.254   0.200  1.00  0.00     0.037 A 
HETATM    6  C   UNL     1       0.903  -1.094  -0.305  1.00  0.00     0.037 A 
ENDROOT
BRANCH   1   7
HETATM    7  C   UNL     1      -2.825  -0.206  -0.179  1.00  0.00     0.014 C 
HETATM    8  C   UNL     1      -3.565   1.131  -0.363  1.00  0.00     0.015 C 
BRANCH   7   9
HETATM    9  C   UNL     1      -3.432  -0.929   1.047  1.00  0.00     0.004 C 
HETATM   10  C   UNL     1      -3.138  -2.422   1.120  1.00  0.00     0.006 C 
ENDBRANCH   7   9
ENDBRANCH   1   7
BRANCH   4  11
HETATM   11  O   UNL     1       2.857   0.263   0.021  1.00  0.00    -0.361 OA
HETATM   12  H   UNL     1       3.258  -0.606  -0.140  1.00  0.00     0.217 HD
ENDBRANCH   4  11
TORSDOF 3
