REMARK  3 active torsions:
REMARK  status: ('A' for Active; 'I' for Inactive)
REMARK    1  A    between atoms: C_1  and  C_3 
REMARK    2  A    between atoms: C_2  and  O_4 
REMARK    3  A    between atoms: C_3  and  C_7 
ROOT
HETATM    1  C   UNL     1      -1.333  -0.138  -0.125  1.00  0.00    -0.021 A 
HETATM    2  C   UNL     1      -0.477  -1.213  -0.425  1.00  0.00     0.072 A 
HETATM    3  C   UNL     1      -0.716   1.075   0.247  1.00  0.00     0.010 A 
HETATM    4  C   UNL     1       0.912  -1.098  -0.323  1.00  0.00     0.037 A 
HETATM    5  C   UNL     1       0.677   1.203   0.313  1.00  0.00     0.001 A 
HETATM    6  C   UNL     1       1.491   0.113   0.039  1.00  0.00     0.003 A 
ENDROOT
BRANCH   1   7
HETATM    7  C   UNL     1      -2.857  -0.255  -0.174  1.00  0.00     0.017 C 
HETATM    8  C   UNL     1      -3.569   1.085  -0.444  1.00  0.00     0.015 C 
BRANCH   7   9
HETATM    9  C   UNL     1      -3.457  -0.866   1.115  1.00  0.00     0.004 C 
HETATM   10  C   UNL     1      -3.211  -2.358   1.293  1.00  0.00     0.006 C 
ENDBRANCH   7   9
ENDBRANCH   1   7
BRANCH   2  11
HETATM   11  O   UNL     1      -0.913  -2.440  -0.844  1.00  0.00    -0.360 OA
HETATM   12  H   UNL     1      -1.844  -2.380  -1.100  1.00  0.00     0.217 HD
ENDBRANCH   2  11
TORSDOF 3
