REMARK  5 active torsions:
REMARK  status: ('A' for Active; 'I' for Inactive)
REMARK    1  A    between atoms: C_1  and  N_13 
REMARK    2  A    between atoms: C_3  and  N_4 
REMARK    3  A    between atoms: N_4  and  C_5 
REMARK    4  A    between atoms: C_9  and  O_11 
REMARK    5  A    between atoms: N_13  and  C_14 
ROOT
HETATM    1  C   UNL     1      -0.675   1.114   0.160  1.00  0.00     0.742 A 
HETATM    2  N   UNL     1      -1.365  -0.007   0.007  1.00  0.00     0.130 NA
HETATM    3  C   UNL     1      -0.670  -1.124  -0.148  1.00  0.00     0.742 A 
HETATM    4  N   UNL     1       0.650  -1.180  -0.118  1.00  0.00    -0.018 NA
HETATM    5  C   UNL     1       1.248   0.002   0.004  1.00  0.00     0.302 A 
HETATM    6  N   UNL     1       0.644   1.175   0.126  1.00  0.00    -0.018 NA
ENDROOT
BRANCH   1   7
HETATM    7  N   UNL     1      -1.327   2.313   0.386  1.00  0.00    -0.218 N 
HETATM    8  H   UNL     1      -0.736   3.062   0.042  1.00  0.00     0.178 HD
BRANCH   7   9
HETATM    9  C   UNL     1      -2.758   2.401   0.140  1.00  0.00     0.091 C 
HETATM   10  C   UNL     1      -3.529   1.843   1.339  1.00  0.00     0.032 C 
HETATM   11  C   UNL     1      -3.134   3.870  -0.061  1.00  0.00     0.032 C 
ENDBRANCH   7   9
ENDBRANCH   1   7
BRANCH   3  12
HETATM   12  N   UNL     1      -1.318  -2.328  -0.370  1.00  0.00    -0.218 N 
HETATM   13  H   UNL     1      -0.735  -3.074  -0.011  1.00  0.00     0.178 HD
BRANCH  12  14
HETATM   14  C   UNL     1      -2.752  -2.410  -0.131  1.00  0.00     0.091 C 
HETATM   15  C   UNL     1      -3.517  -1.855  -1.335  1.00  0.00     0.032 C 
HETATM   16  C   UNL     1      -3.133  -3.878   0.074  1.00  0.00     0.032 C 
ENDBRANCH  12  14
ENDBRANCH   3  12
BRANCH   5  17
HETATM   17  O   UNL     1       2.626   0.074  -0.000  1.00  0.00    -0.323 OA
HETATM   18  C   UNL     1       3.257  -1.199  -0.021  1.00  0.00     0.213 C 
ENDBRANCH   5  17
TORSDOF 5
