REMARK  3 active torsions:
REMARK  status: ('A' for Active; 'I' for Inactive)
REMARK    1  A    between atoms: C_6  and  C_7 
REMARK    2  A    between atoms: C_7  and  C_8 
REMARK    3  A    between atoms: C_7  and  C_12 
ROOT
HETATM    1  C   UNL     1       1.078   2.498  -0.681  1.00  0.00     0.107 C 
ENDROOT
BRANCH   1   2
HETATM    2  C   UNL     1       0.582   1.130  -0.150  1.00  0.00    -0.024 A 
HETATM    3  C   UNL     1      -0.771   0.746  -0.254  1.00  0.00     0.010 A 
HETATM    4  C   UNL     1      -1.209  -0.538   0.088  1.00  0.00     0.001 A 
HETATM    5  C   UNL     1      -0.303  -1.490   0.532  1.00  0.00     0.002 A 
HETATM    6  C   UNL     1       1.030  -1.131   0.698  1.00  0.00     0.024 A 
HETATM    7  C   UNL     1       1.463   0.170   0.399  1.00  0.00     0.041 A 
HETATM    8 CL   UNL     1       3.107   0.525   0.809  1.00  0.00    -0.084 Cl
ENDBRANCH   1   2
BRANCH   1   9
HETATM    9  C   UNL     1       1.624   2.471  -2.171  1.00  0.00     0.200 C 
HETATM   10 CL   UNL     1       0.419   1.881  -3.376  1.00  0.00    -0.083 Cl
HETATM   11 CL   UNL     1       2.171   4.120  -2.703  1.00  0.00    -0.083 Cl
HETATM   12 CL   UNL     1       3.079   1.417  -2.380  1.00  0.00    -0.083 Cl
ENDBRANCH   1   9
BRANCH   1  13
HETATM   13  C   UNL     1       0.121   3.691  -0.412  1.00  0.00    -0.045 A 
HETATM   14  C   UNL     1      -1.074   3.893  -1.127  1.00  0.00     0.010 A 
HETATM   15  C   UNL     1      -1.862   5.031  -0.928  1.00  0.00     0.024 A 
HETATM   16  C   UNL     1      -1.454   6.004  -0.025  1.00  0.00     0.034 A 
HETATM   17  C   UNL     1      -0.276   5.836   0.695  1.00  0.00     0.024 A 
HETATM   18 CL   UNL     1      -2.402   7.422   0.186  1.00  0.00    -0.084 Cl
HETATM   19  C   UNL     1       0.501   4.685   0.513  1.00  0.00     0.010 A 
ENDBRANCH   1  13
TORSDOF 3
