REMARK  4 active torsions:
REMARK  status: ('A' for Active; 'I' for Inactive)
REMARK    1  A    between atoms: C_1  and  C_2 
REMARK    2  A    between atoms: C_1  and  C_9 
REMARK    3  A    between atoms: C_5  and  O_8 
REMARK    4  A    between atoms: C_9  and  C_10 
ROOT
HETATM    1  C   UNL     1       0.450   1.188  -1.198  1.00  0.00    -0.050 A 
HETATM    2  C   UNL     1      -0.607   0.951  -2.092  1.00  0.00     0.011 A 
HETATM    3  C   UNL     1      -0.923   1.858  -3.112  1.00  0.00     0.037 A 
HETATM    4  C   UNL     1      -0.223   3.052  -3.208  1.00  0.00     0.065 A 
HETATM    5  C   UNL     1       0.753   3.367  -2.279  1.00  0.00     0.037 A 
HETATM    6  C   UNL     1       1.085   2.444  -1.283  1.00  0.00     0.011 A 
ENDROOT
BRANCH   1   7
HETATM    7  C   UNL     1       0.874   0.158  -0.131  1.00  0.00    -0.020 C 
HETATM    8  C   UNL     1       0.087   0.533   1.157  1.00  0.00     0.020 C 
HETATM    9  C   UNL     1       2.375   0.283   0.219  1.00  0.00     0.020 C 
BRANCH   7  10
HETATM   10  C   UNL     1       0.520  -1.348  -0.436  1.00  0.00     0.022 C 
BRANCH  10  11
HETATM   11  C   UNL     1       1.205  -2.207  -1.554  1.00  0.00    -0.050 C 
HETATM   12  C   UNL     1       1.035  -1.641  -2.969  1.00  0.00     0.014 C 
HETATM   13  C   UNL     1       2.704  -2.447  -1.305  1.00  0.00     0.014 C 
HETATM   14  C   UNL     1       0.517  -3.596  -1.525  1.00  0.00     0.014 C 
ENDBRANCH  10  11
ENDBRANCH   7  10
ENDBRANCH   1   7
BRANCH   4  15
HETATM   15  O   UNL     1      -0.468   3.945  -4.207  1.00  0.00    -0.361 OA
HETATM   16  H   UNL     1      -1.034   3.514  -4.868  1.00  0.00     0.217 HD
ENDBRANCH   4  15
TORSDOF 4
