REMARK  2 active torsions:
REMARK  status: ('A' for Active; 'I' for Inactive)
REMARK    1  A    between atoms: N_1  and  C_11 
REMARK    2  A    between atoms: C_4  and  C_7 
ROOT
HETATM    1  N   UNL     1      -0.812  -0.897  -0.294  1.00  0.00    -0.225 N 
HETATM    2  C   UNL     1       0.526  -0.904  -0.035  1.00  0.00     0.376 C 
HETATM    3  O   UNL     1       0.992   0.369   0.129  1.00  0.00    -0.278 OA
HETATM    4  C   UNL     1      -0.041   1.280  -0.250  1.00  0.00     0.167 C 
HETATM    5  C   UNL     1      -1.267   0.392  -0.184  1.00  0.00     0.272 C 
HETATM    6  O   UNL     1      -2.419   0.792  -0.088  1.00  0.00    -0.269 OA
HETATM    7  C   UNL     1       0.165   1.696  -1.710  1.00  0.00     0.062 C 
HETATM    8  O   UNL     1       1.287  -1.860   0.040  1.00  0.00    -0.237 OA
ENDROOT
BRANCH   1   9
HETATM    9  C   UNL     1      -1.603  -2.017  -0.680  1.00  0.00     0.051 A 
HETATM   10  C   UNL     1      -2.838  -1.824  -1.324  1.00  0.00     0.054 A 
HETATM   11  C   UNL     1      -3.563  -2.903  -1.836  1.00  0.00     0.037 A 
HETATM   12 CL   UNL     1      -5.033  -2.611  -2.683  1.00  0.00    -0.084 Cl
HETATM   13  C   UNL     1      -3.094  -4.201  -1.700  1.00  0.00     0.048 A 
HETATM   14  C   UNL     1      -1.892  -4.412  -1.037  1.00  0.00     0.037 A 
HETATM   15  C   UNL     1      -1.149  -3.337  -0.534  1.00  0.00     0.054 A 
HETATM   16 CL   UNL     1      -1.299  -6.018  -0.855  1.00  0.00    -0.084 Cl
ENDBRANCH   1   9
BRANCH   4  17
HETATM   17  C   UNL     1      -0.085   2.459   0.684  1.00  0.00     0.011 C 
HETATM   18  C   UNL     1       0.232   2.457   1.987  1.00  0.00     0.010 C 
ENDBRANCH   4  17
TORSDOF 2
