REMARK  1 active torsions:
REMARK  status: ('A' for Active; 'I' for Inactive)
REMARK    1  A    between atoms: C_18  and  C_19 
ROOT
HETATM    1  C   UNL     1      -2.668   0.655   0.467  1.00  0.00    -0.030 C 
HETATM    2  C   UNL     1      -1.431   1.555   0.274  1.00  0.00    -0.001 C 
HETATM    3  C   UNL     1      -0.072   0.894   0.597  1.00  0.00    -0.004 C 
HETATM    4  C   UNL     1       1.091   1.789   0.044  1.00  0.00     0.010 C 
HETATM    5  C   UNL     1       2.462   1.091   0.016  1.00  0.00     0.035 C 
HETATM    6  C   UNL     1       2.401  -0.042   1.000  1.00  0.00    -0.068 C 
HETATM    7  C   UNL     1       1.475  -1.192   0.582  1.00  0.00    -0.016 C 
HETATM    8  C   UNL     1       0.118  -0.542   0.047  1.00  0.00     0.002 C 
HETATM    9  C   UNL     1      -1.111  -1.435   0.201  1.00  0.00     0.007 C 
HETATM   10  C   UNL     1      -2.440  -0.753  -0.113  1.00  0.00     0.011 C 
HETATM   11  C   UNL     1       1.372  -2.219   1.751  1.00  0.00     0.022 C 
HETATM   12  C   UNL     1       1.262  -1.607   3.136  1.00  0.00     0.084 C 
HETATM   13  C   UNL     1       2.392  -0.642   3.383  1.00  0.00     0.149 C 
HETATM   14  O   UNL     1       2.809  -0.392   4.512  1.00  0.00    -0.293 OA
HETATM   15  C   UNL     1       2.884   0.159   2.239  1.00  0.00     0.053 C 
HETATM   16  C   UNL     1      -1.687   2.753   1.208  1.00  0.00     0.006 C 
HETATM   17  C   UNL     1      -2.692   2.293   2.266  1.00  0.00     0.013 C 
HETATM   18  C   UNL     1      -3.024   0.817   1.979  1.00  0.00     0.063 C 
HETATM   19  C   UNL     1      -3.864   1.255  -0.341  1.00  0.00     0.016 C 
HETATM   20  C   UNL     1       2.109  -1.996  -0.585  1.00  0.00     0.020 C 
ENDROOT
BRANCH  18  21
HETATM   21  C   UNL     1      -2.469  -0.191   2.996  1.00  0.00     0.128 C 
HETATM   22  O   UNL     1      -2.600  -1.405   2.824  1.00  0.00    -0.298 OA
HETATM   23  C   UNL     1      -1.933   0.296   4.320  1.00  0.00     0.091 C 
ENDBRANCH  18  21
TORSDOF 1
