REMARK  3 active torsions:
REMARK  status: ('A' for Active; 'I' for Inactive)
REMARK    1  A    between atoms: C_1  and  O_9 
REMARK    2  A    between atoms: C_2  and  O_10 
REMARK    3  A    between atoms: C_4  and  C_7 
ROOT
HETATM    1  C   UNL     1      -1.453  -0.081  -0.067  1.00  0.00     0.102 A 
HETATM    2  C   UNL     1      -0.649  -1.223  -0.035  1.00  0.00     0.099 A 
HETATM    3  C   UNL     1      -0.841   1.176  -0.089  1.00  0.00     0.051 A 
HETATM    4  C   UNL     1       0.734  -1.134  -0.023  1.00  0.00     0.040 A 
HETATM    5  C   UNL     1       0.561   1.297  -0.090  1.00  0.00    -0.034 A 
HETATM    6  C   UNL     1       1.336   0.125  -0.052  1.00  0.00     0.014 A 
ENDROOT
BRANCH   5   7
HETATM    7  C   UNL     1       1.262   2.594  -0.158  1.00  0.00     0.007 C 
HETATM    8  C   UNL     1       0.694   3.812  -0.191  1.00  0.00    -0.030 C 
HETATM    9  C   UNL     1       1.471   5.085  -0.300  1.00  0.00     0.036 C 
ENDBRANCH   5   7
BRANCH   1  10
HETATM   10  O   UNL     1      -2.804  -0.323  -0.082  1.00  0.00    -0.353 OA
HETATM   11  C   UNL     1      -3.653   0.816  -0.174  1.00  0.00     0.210 C 
ENDBRANCH   1  10
BRANCH   2  12
HETATM   12  O   UNL     1      -1.219  -2.467  -0.022  1.00  0.00    -0.358 OA
HETATM   13  H   UNL     1      -2.181  -2.302  -0.045  1.00  0.00     0.217 HD
ENDBRANCH   2  12
TORSDOF 3
