REMARK  4 active torsions:
REMARK  status: ('A' for Active; 'I' for Inactive)
REMARK    1  A    between atoms: C_1  and  N_2 
REMARK    2  A    between atoms: C_5  and  C_8 
REMARK    3  A    between atoms: C_8  and  C_9 
REMARK    4  A    between atoms: C_12  and  N_15 
ROOT
HETATM    1  C   UNL     1       2.724  -0.124  -0.032  1.00  0.00     0.077 C 
ENDROOT
BRANCH   1   2
HETATM    2  C   UNL     1       1.211  -0.053   0.023  1.00  0.00    -0.054 C 
HETATM    3  C   UNL     1       0.559   1.042  -0.563  1.00  0.00     0.009 C 
HETATM    4  C   UNL     1      -0.834   1.167  -0.509  1.00  0.00     0.024 C 
HETATM    5  C   UNL     1      -1.613   0.176   0.088  1.00  0.00     0.005 C 
HETATM    6  C   UNL     1      -0.965  -0.856   0.766  1.00  0.00     0.024 C 
HETATM    7  C   UNL     1       0.431  -0.967   0.744  1.00  0.00     0.009 C 
BRANCH   5   8
HETATM    8  N   UNL     1      -2.998   0.344   0.208  1.00  0.00    -0.303 NA
HETATM    9  H   UNL     1      -3.401   0.910  -0.532  1.00  0.00     0.124 HD
HETATM   10  H   UNL     1      -3.498  -0.532   0.331  1.00  0.00     0.124 HD
ENDBRANCH   5   8
ENDBRANCH   1   2
BRANCH   1  11
HETATM   11  C   UNL     1       3.428  -1.448  -0.268  1.00  0.00    -0.054 A 
HETATM   12  C   UNL     1       4.821  -1.482  -0.093  1.00  0.00     0.009 A 
HETATM   13  C   UNL     1       5.548  -2.666  -0.263  1.00  0.00     0.024 A 
HETATM   14  C   UNL     1       4.907  -3.843  -0.647  1.00  0.00     0.005 A 
HETATM   15  C   UNL     1       3.523  -3.823  -0.802  1.00  0.00     0.024 A 
HETATM   16  C   UNL     1       2.795  -2.633  -0.663  1.00  0.00     0.009 A 
BRANCH  14  17
HETATM   17  N   UNL     1       5.605  -5.057  -0.647  1.00  0.00    -0.303 NA
HETATM   18  H   UNL     1       6.594  -4.961  -0.852  1.00  0.00     0.124 HD
HETATM   19  H   UNL     1       5.163  -5.785  -1.198  1.00  0.00     0.124 HD
ENDBRANCH  14  17
ENDBRANCH   1  11
TORSDOF 4
