REMARK  6 active torsions:
REMARK  status: ('A' for Active; 'I' for Inactive)
REMARK    1  A    between atoms: N_1  and  C_2 
REMARK       I    between atoms: N_1  and  C_11 
REMARK    2  A    between atoms: N_1  and  C_15 
REMARK    3  A    between atoms: C_7  and  C_8 
REMARK    4  A    between atoms: C_11  and  C_13 
REMARK    5  A    between atoms: C_15  and  C_16 
REMARK    6  A    between atoms: C_16  and  O_17 
ROOT
HETATM    1  N   UNL     1       1.110   0.074   0.017  1.00  0.00    -0.310 N 
HETATM    2  C   UNL     1       0.618  -1.130  -0.518  1.00  0.00     0.238 C 
HETATM    3  O   UNL     1       1.332  -2.135  -0.589  1.00  0.00    -0.272 OA
ENDROOT
BRANCH   1   4
HETATM    4  C   UNL     1       0.316   1.251   0.083  1.00  0.00     0.050 A 
HETATM    5  C   UNL     1      -0.557   1.427   1.189  1.00  0.00    -0.035 A 
HETATM    6  C   UNL     1      -1.226   2.651   1.357  1.00  0.00     0.009 A 
HETATM    7  C   UNL     1      -0.889   0.346   2.185  1.00  0.00     0.050 C 
HETATM    8  C   UNL     1      -1.035   3.692   0.461  1.00  0.00     0.001 A 
HETATM    9  C   UNL     1      -0.231   3.495  -0.654  1.00  0.00     0.009 A 
HETATM   10  C   UNL     1       0.429   2.268  -0.895  1.00  0.00    -0.031 A 
BRANCH  10  11
HETATM   11  C   UNL     1       1.170   2.230  -2.224  1.00  0.00     0.036 C 
HETATM   12  C   UNL     1       1.794   0.958  -2.773  1.00  0.00     0.010 C 
ENDBRANCH  10  11
ENDBRANCH   1   4
BRANCH   1  13
HETATM   13  C   UNL     1       2.509   0.107   0.559  1.00  0.00     0.113 C 
HETATM   14  C   UNL     1       2.651  -0.802   1.794  1.00  0.00     0.035 C 
BRANCH  13  15
HETATM   15  C   UNL     1       3.092   1.493   0.949  1.00  0.00     0.192 C 
BRANCH  15  16
HETATM   16  O   UNL     1       3.414   2.270  -0.204  1.00  0.00    -0.394 OA
HETATM   17  C   UNL     1       3.849   3.578   0.142  1.00  0.00     0.201 C 
ENDBRANCH  15  16
ENDBRANCH  13  15
ENDBRANCH   1  13
BRANCH   2  18
HETATM   18  C   UNL     1      -0.842  -1.144  -0.969  1.00  0.00     0.217 C 
HETATM   19 CL   UNL     1      -1.189  -2.556  -1.998  1.00  0.00    -0.121 Cl
ENDBRANCH   2  18
TORSDOF 6
