REMARK  5 active torsions:
REMARK  status: ('A' for Active; 'I' for Inactive)
REMARK    1  A    between atoms: C_1  and  C_2 
REMARK    2  A    between atoms: C_1  and  C_9 
REMARK    3  A    between atoms: C_1  and  C_16 
REMARK    4  A    between atoms: C_5  and  O_8 
REMARK    5  A    between atoms: C_12  and  O_15 
ROOT
HETATM    1  C   UNL     1       0.950  -0.033  -0.049  1.00  0.00     0.010 C 
HETATM    2  C   UNL     1       2.502   0.141  -0.030  1.00  0.00     0.025 C 
ENDROOT
BRANCH   1   3
HETATM    3  C   UNL     1       0.546  -0.179  -1.550  1.00  0.00    -0.045 A 
HETATM    4  C   UNL     1       0.161  -1.404  -2.129  1.00  0.00     0.011 A 
HETATM    5  C   UNL     1      -0.116  -1.521  -3.498  1.00  0.00     0.037 A 
HETATM    6  C   UNL     1      -0.050  -0.401  -4.311  1.00  0.00     0.065 A 
HETATM    7  C   UNL     1       0.297   0.829  -3.777  1.00  0.00     0.037 A 
HETATM    8  C   UNL     1       0.612   0.933  -2.418  1.00  0.00     0.011 A 
BRANCH   6   9
HETATM    9  O   UNL     1      -0.314  -0.470  -5.645  1.00  0.00    -0.361 OA
HETATM   10  H   UNL     1      -0.494  -1.396  -5.875  1.00  0.00     0.217 HD
ENDBRANCH   6   9
ENDBRANCH   1   3
BRANCH   1  11
HETATM   11  C   UNL     1       0.616  -1.276   0.842  1.00  0.00    -0.045 A 
HETATM   12  C   UNL     1       1.292  -2.504   0.654  1.00  0.00     0.011 A 
HETATM   13  C   UNL     1       0.961  -3.655   1.381  1.00  0.00     0.037 A 
HETATM   14  C   UNL     1      -0.036  -3.592   2.341  1.00  0.00     0.065 A 
HETATM   15  C   UNL     1      -0.677  -2.393   2.603  1.00  0.00     0.037 A 
HETATM   16  C   UNL     1      -0.350  -1.250   1.865  1.00  0.00     0.011 A 
BRANCH  14  17
HETATM   17  O   UNL     1      -0.420  -4.689   3.050  1.00  0.00    -0.361 OA
HETATM   18  H   UNL     1       0.033  -5.466   2.685  1.00  0.00     0.217 HD
ENDBRANCH  14  17
ENDBRANCH   1  11
BRANCH   1  19
HETATM   19  C   UNL     1       0.385   1.308   0.563  1.00  0.00     0.014 C 
HETATM   20  C   UNL     1      -1.098   1.613   0.336  1.00  0.00     0.006 C 
ENDBRANCH   1  19
TORSDOF 5
