REMARK  4 active torsions:
REMARK  status: ('A' for Active; 'I' for Inactive)
REMARK    1  A    between atoms: C_1  and  C_11 
REMARK    2  A    between atoms: C_2  and  C_3 
REMARK    3  A    between atoms: C_3  and  O_5 
REMARK    4  A    between atoms: C_11  and  O_13 
ROOT
HETATM    1  C   UNL     1      -0.788  -1.311  -0.062  1.00  0.00     0.055 A 
HETATM    2  C   UNL     1      -1.559  -0.140  -0.038  1.00  0.00     0.055 A 
HETATM    3  C   UNL     1      -0.906   1.111  -0.032  1.00  0.00     0.018 A 
HETATM    4  C   UNL     1       0.487   1.194  -0.044  1.00  0.00     0.001 A 
HETATM    5  C   UNL     1       1.249   0.032  -0.060  1.00  0.00     0.001 A 
HETATM    6  C   UNL     1       0.617  -1.212  -0.070  1.00  0.00     0.018 A 
ENDROOT
BRANCH   1   7
HETATM    7  C   UNL     1      -1.333  -2.688  -0.039  1.00  0.00     0.294 C 
HETATM    8  O   UNL     1      -0.766  -3.603   0.541  1.00  0.00    -0.259 OA
BRANCH   7   9
HETATM    9  O   UNL     1      -2.430  -2.797  -0.822  1.00  0.00    -0.322 OA
HETATM   10  C   UNL     1      -3.073  -4.073  -0.753  1.00  0.00     0.213 C 
ENDBRANCH   7   9
ENDBRANCH   1   7
BRANCH   2  11
HETATM   11  C   UNL     1      -3.037  -0.154   0.107  1.00  0.00     0.294 C 
HETATM   12  O   UNL     1      -3.661  -0.962   0.773  1.00  0.00    -0.259 OA
BRANCH  11  13
HETATM   13  O   UNL     1      -3.552   0.905  -0.568  1.00  0.00    -0.322 OA
HETATM   14  C   UNL     1      -4.958   1.123  -0.421  1.00  0.00     0.213 C 
ENDBRANCH  11  13
ENDBRANCH   2  11
TORSDOF 4
