REMARK  3 active torsions:
REMARK  status: ('A' for Active; 'I' for Inactive)
REMARK    1  A    between atoms: C_1  and  C_2 
REMARK    2  A    between atoms: C_2  and  C_3 
REMARK    3  A    between atoms: C_3  and  C_4 
ROOT
HETATM    1  C   UNL     1      -1.314   0.014  -0.089  1.00  0.00    -0.058 A 
HETATM    2  C   UNL     1      -0.571   1.201  -0.030  1.00  0.00     0.007 A 
HETATM    3  C   UNL     1       0.824   1.169   0.043  1.00  0.00     0.001 A 
HETATM    4  C   UNL     1       1.498  -0.049   0.059  1.00  0.00     0.000 A 
HETATM    5  C   UNL     1       0.776  -1.238   0.004  1.00  0.00     0.001 A 
HETATM    6  C   UNL     1      -0.618  -1.206  -0.070  1.00  0.00     0.007 A 
ENDROOT
BRANCH   1   7
HETATM    7  C   UNL     1      -2.825  -0.027  -0.182  1.00  0.00     0.038 C 
BRANCH   7   8
HETATM    8  C   UNL     1      -3.546   1.326  -0.189  1.00  0.00     0.004 C 
BRANCH   8   9
HETATM    9  C   UNL     1      -5.060   1.158  -0.324  1.00  0.00    -0.004 C 
HETATM   10  C   UNL     1      -5.764   2.506  -0.325  1.00  0.00     0.005 C 
ENDBRANCH   8   9
ENDBRANCH   7   8
ENDBRANCH   1   7
TORSDOF 3
