REMARK  5 active torsions:
REMARK  status: ('A' for Active; 'I' for Inactive)
REMARK    1  A    between atoms: C_1  and  C_2 
REMARK    2  A    between atoms: C_1  and  O_10 
REMARK    3  A    between atoms: C_5  and  O_8 
REMARK    4  A    between atoms: O_10  and  C_11 
REMARK    5  A    between atoms: C_11  and  C_12 
ROOT
HETATM    1  C   UNL     1       0.375   1.150  -0.692  1.00  0.00     0.039 A 
HETATM    2  C   UNL     1      -0.364   0.820  -1.833  1.00  0.00     0.020 A 
HETATM    3  C   UNL     1      -0.970   1.831  -2.581  1.00  0.00     0.037 A 
HETATM    4  C   UNL     1      -0.836   3.157  -2.174  1.00  0.00     0.065 A 
HETATM    5  C   UNL     1      -0.142   3.486  -1.013  1.00  0.00     0.037 A 
HETATM    6  C   UNL     1       0.452   2.478  -0.256  1.00  0.00     0.020 A 
ENDROOT
BRANCH   1   7
HETATM    7  C   UNL     1       1.057   0.069   0.051  1.00  0.00     0.293 C 
HETATM    8  O   UNL     1       0.411  -0.874   0.488  1.00  0.00    -0.259 OA
BRANCH   7   9
HETATM    9  O   UNL     1       2.405   0.160   0.192  1.00  0.00    -0.318 OA
BRANCH   9  10
HETATM   10  C   UNL     1       3.201   1.057  -0.609  1.00  0.00     0.178 C 
BRANCH  10  11
HETATM   11  C   UNL     1       4.667   0.665  -0.470  1.00  0.00     0.022 C 
HETATM   12  C   UNL     1       5.571   1.667  -1.166  1.00  0.00     0.007 C 
ENDBRANCH  10  11
ENDBRANCH   9  10
ENDBRANCH   7   9
ENDBRANCH   1   7
BRANCH   4  13
HETATM   13  O   UNL     1      -1.378   4.179  -2.894  1.00  0.00    -0.361 OA
HETATM   14  H   UNL     1      -1.809   3.813  -3.684  1.00  0.00     0.217 HD
ENDBRANCH   4  13
TORSDOF 5
