REMARK  4 active torsions:
REMARK  status: ('A' for Active; 'I' for Inactive)
REMARK    1  A    between atoms: C_1  and  C_2 
REMARK    2  A    between atoms: C_1  and  O_10 
REMARK    3  A    between atoms: C_5  and  O_8 
REMARK    4  A    between atoms: O_10  and  C_11 
ROOT
HETATM    1  C   UNL     1       0.320   0.955  -1.123  1.00  0.00     0.039 A 
HETATM    2  C   UNL     1      -0.327   0.385  -2.225  1.00  0.00     0.020 A 
HETATM    3  C   UNL     1      -0.901   1.212  -3.192  1.00  0.00     0.037 A 
HETATM    4  C   UNL     1      -0.831   2.595  -3.037  1.00  0.00     0.065 A 
HETATM    5  C   UNL     1      -0.225   3.165  -1.921  1.00  0.00     0.037 A 
HETATM    6  C   UNL     1       0.345   2.343  -0.950  1.00  0.00     0.020 A 
ENDROOT
BRANCH   1   7
HETATM    7  C   UNL     1       0.963   0.066  -0.136  1.00  0.00     0.293 C 
HETATM    8  O   UNL     1       0.296  -0.755   0.479  1.00  0.00    -0.259 OA
BRANCH   7   9
HETATM    9  O   UNL     1       2.303   0.202   0.037  1.00  0.00    -0.318 OA
BRANCH   9  10
HETATM   10  C   UNL     1       3.135   0.851  -0.947  1.00  0.00     0.174 C 
HETATM   11  C   UNL     1       4.574   0.444  -0.695  1.00  0.00     0.034 C 
ENDBRANCH   9  10
ENDBRANCH   7   9
ENDBRANCH   1   7
BRANCH   4  12
HETATM   12  O   UNL     1      -1.352   3.440  -3.971  1.00  0.00    -0.361 OA
HETATM   13  H   UNL     1      -1.724   2.915  -4.698  1.00  0.00     0.217 HD
ENDBRANCH   4  12
TORSDOF 4
