REMARK  8 active torsions:
REMARK  status: ('A' for Active; 'I' for Inactive)
REMARK    1  A    between atoms: C_1  and  C_14 
REMARK    2  A    between atoms: C_2  and  C_3 
REMARK    3  A    between atoms: C_3  and  O_4 
REMARK    4  A    between atoms: O_4  and  C_5 
REMARK    5  A    between atoms: C_5  and  C_6 
REMARK    6  A    between atoms: C_14  and  O_15 
REMARK    7  A    between atoms: O_15  and  C_16 
REMARK    8  A    between atoms: C_16  and  C_17 
ROOT
HETATM    1  C   UNL     1      -0.006  -0.831  -0.252  1.00  0.00     0.055 A 
HETATM    2  C   UNL     1      -1.229  -0.157  -0.303  1.00  0.00     0.055 A 
HETATM    3  C   UNL     1      -1.274   1.205   0.030  1.00  0.00     0.018 A 
HETATM    4  C   UNL     1      -0.107   1.875   0.419  1.00  0.00     0.001 A 
HETATM    5  C   UNL     1       1.109   1.197   0.472  1.00  0.00     0.001 A 
HETATM    6  C   UNL     1       1.162  -0.150   0.133  1.00  0.00     0.018 A 
ENDROOT
BRANCH   1   7
HETATM    7  C   UNL     1       0.185  -2.204  -0.726  1.00  0.00     0.294 C 
HETATM    8  O   UNL     1       0.113  -2.537  -1.903  1.00  0.00    -0.259 OA
BRANCH   7   9
HETATM    9  O   UNL     1       0.637  -2.951   0.305  1.00  0.00    -0.317 OA
BRANCH   9  10
HETATM   10  C   UNL     1       1.843  -3.674   0.028  1.00  0.00     0.183 C 
BRANCH  10  11
HETATM   11  C   UNL     1       1.665  -5.193   0.021  1.00  0.00     0.002 C 
HETATM   12  C   UNL     1       0.913  -5.671  -1.220  1.00  0.00     0.011 C 
HETATM   13  C   UNL     1       3.048  -5.847   0.079  1.00  0.00     0.011 C 
ENDBRANCH  10  11
ENDBRANCH   9  10
ENDBRANCH   7   9
ENDBRANCH   1   7
BRANCH   2  14
HETATM   14  C   UNL     1      -2.477  -0.811  -0.742  1.00  0.00     0.294 C 
HETATM   15  O   UNL     1      -3.190  -0.388  -1.637  1.00  0.00    -0.259 OA
BRANCH  14  16
HETATM   16  O   UNL     1      -2.788  -1.817   0.107  1.00  0.00    -0.317 OA
BRANCH  16  17
HETATM   17  C   UNL     1      -2.768  -3.117  -0.495  1.00  0.00     0.183 C 
BRANCH  17  18
HETATM   18  C   UNL     1      -4.122  -3.829  -0.466  1.00  0.00     0.002 C 
HETATM   19  C   UNL     1      -4.983  -3.418  -1.661  1.00  0.00     0.011 C 
HETATM   20  C   UNL     1      -3.873  -5.340  -0.503  1.00  0.00     0.011 C 
ENDBRANCH  17  18
ENDBRANCH  16  17
ENDBRANCH  14  16
ENDBRANCH   2  14
TORSDOF 8
