REMARK  1 active torsions:
REMARK  status: ('A' for Active; 'I' for Inactive)
REMARK    1  A    between atoms: N_1  and  C_12 
ROOT
HETATM    1  N   UNL     1      -2.281  -0.664  -0.221  1.00  0.00    -0.266 N 
HETATM    2  C   UNL     1      -1.769   0.604  -0.086  1.00  0.00     0.262 C 
HETATM    3  C   UNL     1      -0.316   0.484  -0.030  1.00  0.00     0.048 A 
HETATM    4  C   UNL     1       0.666   1.454   0.009  1.00  0.00     0.018 A 
HETATM    5  C   UNL     1       1.992   1.016   0.076  1.00  0.00     0.001 A 
HETATM    6  C   UNL     1       2.298  -0.361   0.112  1.00  0.00     0.001 A 
HETATM    7  C   UNL     1       1.282  -1.321   0.087  1.00  0.00     0.018 A 
HETATM    8  C   UNL     1      -0.018  -0.861   0.013  1.00  0.00     0.048 A 
HETATM    9  C   UNL     1      -1.284  -1.585  -0.010  1.00  0.00     0.262 C 
HETATM   10  O   UNL     1      -1.369  -2.786   0.158  1.00  0.00    -0.267 OA
HETATM   11  O   UNL     1      -2.349   1.666   0.034  1.00  0.00    -0.267 OA
ENDROOT
BRANCH   1  12
HETATM   12  C   UNL     1      -3.707  -0.984  -0.064  1.00  0.00     0.189 C 
HETATM   13  C   UNL     1      -4.051  -2.362  -0.642  1.00  0.00     0.247 C 
HETATM   14  N   UNL     1      -3.967  -2.467  -2.009  1.00  0.00    -0.296 N 
HETATM   15  O   UNL     1      -4.506  -3.278   0.038  1.00  0.00    -0.271 OA
HETATM   16  C   UNL     1      -4.363  -1.468  -2.859  1.00  0.00     0.224 C 
HETATM   17  H   UNL     1      -4.163  -3.393  -2.366  1.00  0.00     0.171 HD
HETATM   18  C   UNL     1      -4.347  -0.056  -2.314  1.00  0.00     0.106 C 
HETATM   19  O   UNL     1      -4.707  -1.720  -4.010  1.00  0.00    -0.273 OA
HETATM   20  C   UNL     1      -4.644  -0.025  -0.816  1.00  0.00     0.045 C 
ENDBRANCH   1  12
TORSDOF 1
