REMARK  3 active torsions:
REMARK  status: ('A' for Active; 'I' for Inactive)
REMARK    1  A    between atoms: C_1  and  C_2 
REMARK    2  A    between atoms: C_1  and  O_10 
REMARK    3  A    between atoms: C_5  and  O_8 
ROOT
HETATM    1  C   UNL     1       0.268  -1.195   0.625  1.00  0.00     0.039 A 
HETATM    2  C   UNL     1       0.564  -2.542   0.376  1.00  0.00     0.020 A 
HETATM    3  C   UNL     1      -0.138  -3.547   1.048  1.00  0.00     0.037 A 
HETATM    4  C   UNL     1      -1.139  -3.196   1.950  1.00  0.00     0.065 A 
HETATM    5  C   UNL     1      -1.456  -1.862   2.186  1.00  0.00     0.037 A 
HETATM    6  C   UNL     1      -0.756  -0.856   1.518  1.00  0.00     0.020 A 
ENDROOT
BRANCH   1   7
HETATM    7  C   UNL     1       0.982  -0.103  -0.084  1.00  0.00     0.292 C 
HETATM    8  O   UNL     1       0.387   0.889  -0.480  1.00  0.00    -0.259 OA
BRANCH   7   9
HETATM    9  O   UNL     1       2.300  -0.314  -0.324  1.00  0.00    -0.323 OA
HETATM   10  C   UNL     1       3.136  -0.736   0.764  1.00  0.00     0.213 C 
ENDBRANCH   7   9
ENDBRANCH   1   7
BRANCH   4  11
HETATM   11  O   UNL     1      -1.849  -4.143   2.625  1.00  0.00    -0.361 OA
HETATM   12  H   UNL     1      -1.552  -5.023   2.342  1.00  0.00     0.217 HD
ENDBRANCH   4  11
TORSDOF 3
