REMARK  3 active torsions:
REMARK  status: ('A' for Active; 'I' for Inactive)
REMARK    1  A    between atoms: C_1  and  C_2 
REMARK    2  A    between atoms: C_1  and  C_9 
REMARK    3  A    between atoms: C_5  and  O_8 
ROOT
HETATM    1  C   UNL     1       1.134  -0.173   0.037  1.00  0.00     0.007 C 
HETATM    2  C   UNL     1       0.718   1.327   0.107  1.00  0.00     0.025 C 
HETATM    3  C   UNL     1       2.687  -0.154  -0.015  1.00  0.00     0.025 C 
ENDROOT
BRANCH   1   4
HETATM    4  C   UNL     1       0.657  -0.844  -1.281  1.00  0.00    -0.045 A 
HETATM    5  C   UNL     1       0.592  -2.248  -1.409  1.00  0.00     0.011 A 
HETATM    6  C   UNL     1       0.277  -2.865  -2.626  1.00  0.00     0.037 A 
HETATM    7  C   UNL     1       0.021  -2.087  -3.743  1.00  0.00     0.065 A 
HETATM    8  C   UNL     1       0.060  -0.704  -3.656  1.00  0.00     0.037 A 
HETATM    9  C   UNL     1       0.379  -0.091  -2.439  1.00  0.00     0.011 A 
BRANCH   7  10
HETATM   10  O   UNL     1      -0.260  -2.644  -4.954  1.00  0.00    -0.361 OA
HETATM   11  H   UNL     1      -0.199  -3.610  -4.869  1.00  0.00     0.217 HD
ENDBRANCH   7  10
ENDBRANCH   1   4
BRANCH   1  12
HETATM   12  C   UNL     1       0.635  -0.904   1.318  1.00  0.00    -0.046 A 
HETATM   13  C   UNL     1       1.327  -2.011   1.853  1.00  0.00     0.008 A 
HETATM   14  C   UNL     1       0.890  -2.663   3.011  1.00  0.00     0.001 A 
HETATM   15  C   UNL     1      -0.239  -2.211   3.682  1.00  0.00     0.000 A 
HETATM   16  C   UNL     1      -0.944  -1.123   3.180  1.00  0.00     0.001 A 
HETATM   17  C   UNL     1      -0.523  -0.490   2.004  1.00  0.00     0.008 A 
ENDBRANCH   1  12
TORSDOF 3
