REMARK  0 active torsions:
REMARK  status: ('A' for Active; 'I' for Inactive)
REMARK       I    between atoms: N_7  and  C_8 
REMARK       I    between atoms: C_8  and  N_9 
ROOT
HETATM    1  C   UNL     1      -3.320  -1.260   0.288  1.00  0.00     0.002 A 
HETATM    2  C   UNL     1      -3.594  -0.002   0.808  1.00  0.00     0.001 A 
HETATM    3  C   UNL     1      -2.683   1.035   0.618  1.00  0.00     0.014 A 
HETATM    4  C   UNL     1      -1.477   0.825  -0.078  1.00  0.00    -0.009 A 
HETATM    5  C   UNL     1      -1.187  -0.451  -0.604  1.00  0.00     0.054 A 
HETATM    6  C   UNL     1      -2.132  -1.479  -0.413  1.00  0.00     0.031 A 
HETATM    7  N   UNL     1       0.031  -0.730  -1.321  1.00  0.00    -0.263 N 
HETATM    8  C   UNL     1       0.014  -1.562  -2.447  1.00  0.00     0.325 C 
HETATM    9  N   UNL     1       1.207  -1.695  -3.103  1.00  0.00    -0.351 N 
HETATM   10  O   UNL     1      -0.964  -2.111  -2.950  1.00  0.00    -0.247 OA
HETATM   11  C   UNL     1       1.234  -0.443  -0.583  1.00  0.00     0.054 A 
HETATM   12  C   UNL     1       1.527   0.837  -0.073  1.00  0.00    -0.009 A 
HETATM   13  C   UNL     1       0.693   2.015  -0.321  1.00  0.00     0.014 C 
HETATM   14  C   UNL     1      -0.644   2.008  -0.319  1.00  0.00     0.014 C 
HETATM   15  C   UNL     1       2.727   1.045   0.631  1.00  0.00     0.014 A 
HETATM   16  C   UNL     1       3.622  -0.001   0.855  1.00  0.00     0.001 A 
HETATM   17  C   UNL     1       3.334  -1.268   0.367  1.00  0.00     0.002 A 
HETATM   18  C   UNL     1       2.153  -1.485  -0.345  1.00  0.00     0.031 A 
HETATM   19  H   UNL     1       1.824  -0.895  -3.082  1.00  0.00     0.160 HD
HETATM   20  H   UNL     1       1.115  -2.147  -4.004  1.00  0.00     0.160 HD
ENDROOT
TORSDOF 0
