REMARK  5 active torsions:
REMARK  status: ('A' for Active; 'I' for Inactive)
REMARK    1  A    between atoms: N_1  and  C1*_3 
REMARK    2  A    between atoms: C_10  and  N_15 
REMARK    3  A    between atoms: C4*_12  and  C5*_17 
REMARK    4  A    between atoms: C3*_13  and  O3*_18 
REMARK    5  A    between atoms: C5*_17  and  O5*_19 
ROOT
HETATM    1  N   UNL     1       1.553   1.112   0.054  1.00  0.00    -0.296 N 
HETATM    2  C   UNL     1       0.242   0.723   0.032  1.00  0.00     0.169 A 
HETATM    3  C   UNL     1       2.316  -0.033   0.088  1.00  0.00     0.214 A 
HETATM    4  C   UNL     1       0.284  -0.666   0.002  1.00  0.00     0.149 A 
HETATM    5  N   UNL     1      -0.861   1.486   0.024  1.00  0.00    -0.198 NA
HETATM    6  N   UNL     1       1.581  -1.123   0.044  1.00  0.00    -0.236 NA
HETATM    7  C   UNL     1      -0.948  -1.341  -0.061  1.00  0.00     0.157 A 
HETATM    8  C   UNL     1      -1.972   0.722  -0.009  1.00  0.00     0.227 A 
HETATM    9  N   UNL     1      -2.086  -0.619  -0.048  1.00  0.00    -0.199 NA
HETATM   10 CL   UNL     1      -3.450   1.586   0.009  1.00  0.00    -0.041 Cl
ENDROOT
BRANCH   1  11
HETATM   11  C1* UNL     1       2.125   2.434  -0.026  1.00  0.00     0.233 C 
HETATM   12  O4* UNL     1       2.614   2.816   1.277  1.00  0.00    -0.356 OA
HETATM   13  C4* UNL     1       2.627   4.261   1.338  1.00  0.00     0.176 C 
HETATM   14  C3* UNL     1       2.128   4.758  -0.028  1.00  0.00     0.153 C 
HETATM   15  C2* UNL     1       1.276   3.601  -0.503  1.00  0.00     0.088 C 
BRANCH  13  16
HETATM   16  C5* UNL     1       1.747   4.733   2.500  1.00  0.00     0.198 C 
BRANCH  16  17
HETATM   17  O5* UNL     1       1.967   6.112   2.778  1.00  0.00    -0.398 OA
HETATM   18  H5* UNL     1       1.499   6.645   2.113  1.00  0.00     0.209 HD
ENDBRANCH  16  17
ENDBRANCH  13  16
BRANCH  14  19
HETATM   19  O3* UNL     1       3.189   4.912  -0.976  1.00  0.00    -0.393 OA
HETATM   20  H3* UNL     1       4.049   4.833  -0.526  1.00  0.00     0.210 HD
ENDBRANCH  14  19
ENDBRANCH   1  11
BRANCH   7  21
HETATM   21  N   UNL     1      -1.044  -2.725  -0.130  1.00  0.00    -0.382 N 
HETATM   22  H   UNL     1      -0.210  -3.210   0.181  1.00  0.00     0.157 HD
HETATM   23  H   UNL     1      -1.940  -3.075   0.184  1.00  0.00     0.157 HD
ENDBRANCH   7  21
TORSDOF 5
