REMARK  3 active torsions:
REMARK  status: ('A' for Active; 'I' for Inactive)
REMARK    1  A    between atoms: N_4  and  C_13 
REMARK    2  A    between atoms: C_12  and  C_16 
REMARK    3  A    between atoms: C_16  and  O_17 
ROOT
HETATM    1  C   UNL     1       0.267   3.092  -1.998  1.00  0.00     0.168 A 
HETATM    2  C   UNL     1      -0.400   2.236  -2.849  1.00  0.00     0.172 A 
HETATM    3  N   UNL     1      -0.063   0.929  -2.612  1.00  0.00    -0.234 NA
HETATM    4  N   UNL     1       1.093   2.290  -1.262  1.00  0.00    -0.296 N 
HETATM    5  C   UNL     1       0.817   0.993  -1.633  1.00  0.00     0.214 A 
HETATM    6  N   UNL     1       0.168   4.441  -1.934  1.00  0.00    -0.223 NA
HETATM    7  N   UNL     1      -1.370   4.193  -3.732  1.00  0.00    -0.316 N 
HETATM    8  C   UNL     1      -0.658   4.931  -2.806  1.00  0.00     0.212 A 
HETATM    9  C   UNL     1      -1.292   2.812  -3.835  1.00  0.00     0.279 A 
HETATM   10  O   UNL     1      -1.910   2.194  -4.697  1.00  0.00    -0.265 OA
HETATM   11  H   UNL     1      -1.973   4.647  -4.400  1.00  0.00     0.170 HD
ENDROOT
BRANCH   4  12
HETATM   12  C   UNL     1       2.143   2.665  -0.333  1.00  0.00     0.231 C 
HETATM   13  O   UNL     1       1.555   2.896   0.960  1.00  0.00    -0.359 OA
HETATM   14  C   UNL     1       2.048   4.157   1.459  1.00  0.00     0.147 C 
HETATM   15  C   UNL     1       2.466   4.961   0.241  1.00  0.00     0.038 C 
HETATM   16  C   UNL     1       2.974   3.891  -0.697  1.00  0.00     0.057 C 
BRANCH  14  17
HETATM   17  C   UNL     1       0.961   4.815   2.306  1.00  0.00     0.196 C 
BRANCH  17  18
HETATM   18  O   UNL     1      -0.260   4.915   1.577  1.00  0.00    -0.398 OA
HETATM   19  H   UNL     1      -0.357   4.064   1.103  1.00  0.00     0.209 HD
ENDBRANCH  17  18
ENDBRANCH  14  17
ENDBRANCH   4  12
TORSDOF 3
