REMARK  18 active torsions:
REMARK  status: ('A' for Active; 'I' for Inactive)
REMARK    1  A    between atoms: S_1  and  C_2 
REMARK    2  A    between atoms: C_2  and  C_3 
REMARK    3  A    between atoms: C_2  and  C_4 
REMARK    4  A    between atoms: C_3  and  C_5 
REMARK    5  A    between atoms: C_4  and  O_9 
REMARK    6  A    between atoms: C_5  and  O_12 
REMARK    7  A    between atoms: O_9  and  C_13 
REMARK    8  A    between atoms: O_12  and  C_14 
REMARK    9  A    between atoms: C_13  and  C_15 
REMARK   10  A    between atoms: C_14  and  C_16 
REMARK   11  A    between atoms: C_15  and  C_18 
REMARK   12  A    between atoms: C_15  and  C_19 
REMARK   13  A    between atoms: C_16  and  C_17 
REMARK   14  A    between atoms: C_16  and  C_20 
REMARK   15  A    between atoms: C_19  and  C_24 
REMARK   16  A    between atoms: C_20  and  C_23 
REMARK   17  A    between atoms: C_21  and  C_24 
REMARK   18  A    between atoms: C_22  and  C_23 
ROOT
HETATM    1  C   UNL     1       0.325  -0.682  -1.267  1.00  0.00     0.238 C 
ENDROOT
BRANCH   1   2
HETATM    2  S   UNL     1       0.831  -0.755   0.411  1.00  0.00     0.116 S 
HETATM    3  O   UNL     1       0.122  -1.917   0.943  1.00  0.00    -0.594 OA
HETATM    4  O   UNL     1       0.371   0.508   0.985  1.00  0.00    -0.594 OA
HETATM    5  O   UNL     1       2.278  -0.924   0.341  1.00  0.00    -0.594 OA
ENDBRANCH   1   2
BRANCH   1   6
HETATM    6  C   UNL     1      -1.177  -0.450  -1.402  1.00  0.00     0.144 C 
BRANCH   6   7
HETATM    7  C   UNL     1      -1.925  -1.698  -1.004  1.00  0.00     0.260 C 
HETATM    8  O   UNL     1      -1.729  -2.799  -1.503  1.00  0.00    -0.265 OA
BRANCH   7   9
HETATM    9  O   UNL     1      -2.906  -1.406  -0.103  1.00  0.00    -0.321 OA
BRANCH   9  10
HETATM   10  C   UNL     1      -3.496  -2.528   0.571  1.00  0.00     0.183 C 
BRANCH  10  11
HETATM   11  C   UNL     1      -5.038  -2.503   0.471  1.00  0.00     0.010 C 
BRANCH  11  12
HETATM   12  C   UNL     1      -5.552  -2.890  -0.935  1.00  0.00     0.002 C 
HETATM   13  C   UNL     1      -5.183  -1.926  -2.052  1.00  0.00     0.005 C 
ENDBRANCH  11  12
BRANCH  11  14
HETATM   14  C   UNL     1      -5.612  -3.457   1.552  1.00  0.00     0.007 C 
BRANCH  14  15
HETATM   15  C   UNL     1      -7.142  -3.453   1.662  1.00  0.00     0.000 C 
BRANCH  15  16
HETATM   16  C   UNL     1      -7.625  -4.357   2.799  1.00  0.00    -0.005 C 
HETATM   17  C   UNL     1      -9.144  -4.409   2.861  1.00  0.00     0.005 C 
ENDBRANCH  15  16
ENDBRANCH  14  15
ENDBRANCH  11  14
ENDBRANCH  10  11
ENDBRANCH   9  10
ENDBRANCH   7   9
ENDBRANCH   6   7
ENDBRANCH   1   6
BRANCH   1  18
HETATM   18  C   UNL     1       1.083   0.148  -2.264  1.00  0.00     0.280 C 
HETATM   19  O   UNL     1       1.013  -0.212  -3.453  1.00  0.00    -0.264 OA
BRANCH  18  20
HETATM   20  O   UNL     1       1.720   1.319  -2.061  1.00  0.00    -0.320 OA
BRANCH  20  21
HETATM   21  C   UNL     1       1.921   1.990  -0.812  1.00  0.00     0.183 C 
BRANCH  21  22
HETATM   22  C   UNL     1       2.822   3.242  -0.954  1.00  0.00     0.010 C 
BRANCH  22  23
HETATM   23  C   UNL     1       2.094   4.432  -1.611  1.00  0.00     0.002 C 
HETATM   24  C   UNL     1       1.664   4.196  -3.052  1.00  0.00     0.005 C 
ENDBRANCH  22  23
BRANCH  22  25
HETATM   25  C   UNL     1       3.304   3.584   0.479  1.00  0.00     0.007 C 
BRANCH  25  26
HETATM   26  C   UNL     1       4.240   4.784   0.630  1.00  0.00     0.000 C 
BRANCH  26  27
HETATM   27  C   UNL     1       4.659   4.922   2.099  1.00  0.00    -0.005 C 
HETATM   28  C   UNL     1       5.543   6.132   2.339  1.00  0.00     0.005 C 
ENDBRANCH  26  27
ENDBRANCH  25  26
ENDBRANCH  22  25
ENDBRANCH  21  22
ENDBRANCH  20  21
ENDBRANCH  18  20
ENDBRANCH   1  18
TORSDOF 18
