REMARK  11 active torsions:
REMARK  status: ('A' for Active; 'I' for Inactive)
REMARK    1  A    between atoms: C_1  and  C_6 
REMARK    2  A    between atoms: C_1  and  O_12 
REMARK    3  A    between atoms: C_1  and  C_2 
REMARK    4  A    between atoms: C_2  and  O_7 
REMARK    5  A    between atoms: C_2  and  C_3 
REMARK    6  A    between atoms: C_3  and  C_4 
REMARK    7  A    between atoms: C_3  and  O_8 
REMARK    8  A    between atoms: C_4  and  C_5 
REMARK    9  A    between atoms: C_4  and  O_9 
REMARK   10  A    between atoms: C_5  and  O_10 
REMARK   11  A    between atoms: C_6  and  O_11 
ROOT
HETATM    1  C   UNL     1       0.291  -0.292  -1.318  1.00  0.00     0.180 C 
ENDROOT
BRANCH   1   2
HETATM    2  C   UNL     1      -1.244  -0.084  -1.369  1.00  0.00     0.173 C 
BRANCH   2   3
HETATM    3  C   UNL     1      -1.726   1.164  -0.616  1.00  0.00     0.198 C 
BRANCH   3   4
HETATM    4  O   UNL     1      -0.947   2.305  -0.968  1.00  0.00    -0.398 OA
HETATM    5  H   UNL     1      -1.320   3.052  -0.465  1.00  0.00     0.209 HD
ENDBRANCH   3   4
ENDBRANCH   2   3
BRANCH   2   6
HETATM    6  O   UNL     1      -1.935  -1.231  -0.867  1.00  0.00    -0.391 OA
HETATM    7  H   UNL     1      -1.547  -1.420   0.014  1.00  0.00     0.210 HD
ENDBRANCH   2   6
ENDBRANCH   1   2
BRANCH   1   8
HETATM    8  O   UNL     1       0.975   0.708  -2.088  1.00  0.00    -0.390 OA
HETATM    9  H   UNL     1       0.507   1.556  -1.901  1.00  0.00     0.210 HD
ENDBRANCH   1   8
BRANCH   1  10
HETATM   10  C   UNL     1       0.868  -0.307   0.119  1.00  0.00     0.180 C 
BRANCH  10  11
HETATM   11  C   UNL     1       2.384  -0.651   0.174  1.00  0.00     0.173 C 
BRANCH  11  12
HETATM   12  C   UNL     1       2.698  -2.103  -0.208  1.00  0.00     0.198 C 
BRANCH  12  13
HETATM   13  O   UNL     1       1.991  -3.007   0.641  1.00  0.00    -0.398 OA
HETATM   14  H   UNL     1       2.577  -3.194   1.400  1.00  0.00     0.209 HD
ENDBRANCH  12  13
ENDBRANCH  11  12
BRANCH  11  15
HETATM   15  O   UNL     1       3.176   0.235  -0.616  1.00  0.00    -0.391 OA
HETATM   16  H   UNL     1       2.663   0.451  -1.426  1.00  0.00     0.210 HD
ENDBRANCH  11  15
ENDBRANCH  10  11
BRANCH  10  17
HETATM   17  O   UNL     1       0.088  -1.174   0.956  1.00  0.00    -0.390 OA
HETATM   18  H   UNL     1       0.516  -2.061   0.922  1.00  0.00     0.210 HD
ENDBRANCH  10  17
ENDBRANCH   1  10
TORSDOF 11
