REMARK  8 active torsions:
REMARK  status: ('A' for Active; 'I' for Inactive)
REMARK    1  A    between atoms: C_2  and  O_7 
REMARK    2  A    between atoms: C_3  and  O_9 
REMARK    3  A    between atoms: C_4  and  N_11 
REMARK    4  A    between atoms: C_5  and  O_13 
REMARK    5  A    between atoms: C_10  and  O_17 
REMARK    6  A    between atoms: C_14  and  C_20 
REMARK    7  A    between atoms: C_16  and  O_32 
REMARK       I    between atoms: C_20  and  N_25 
REMARK    8  A    between atoms: C_28  and  O_31 
ROOT
HETATM    1  C   UNL     1       3.413   0.706  -0.545  1.00  0.00     0.093 C 
HETATM    2  C   UNL     1       3.429  -0.835  -0.253  1.00  0.00     0.180 C 
HETATM    3  C   UNL     1       2.341   1.338   0.378  1.00  0.00     0.140 C 
HETATM    4  C   UNL     1       3.349   0.963  -2.114  1.00  0.00     0.146 C 
HETATM    5  C   UNL     1       2.154  -1.414   0.360  1.00  0.00     0.097 C 
HETATM    6  C   UNL     1       3.580  -1.613  -1.581  1.00  0.00     0.208 C 
HETATM    7  C   UNL     1       0.929   0.750   0.106  1.00  0.00     0.093 C 
HETATM    8  C   UNL     1       2.382  -0.014  -2.796  1.00  0.00     0.085 C 
HETATM    9  C   UNL     1       0.988  -0.736   0.406  1.00  0.00     0.035 C 
HETATM   10  C   UNL     1       2.505  -1.338  -2.572  1.00  0.00     0.112 C 
HETATM   11  O   UNL     1       4.574  -2.292  -1.825  1.00  0.00    -0.288 OA
HETATM   12  C   UNL     1      -0.251   1.473   0.833  1.00  0.00     0.092 C 
HETATM   13  C   UNL     1      -0.303  -1.435   0.695  1.00  0.00     0.195 C 
HETATM   14  C   UNL     1      -1.544   0.729   0.519  1.00  0.00    -0.007 A 
HETATM   15  C   UNL     1      -0.071   1.601   2.348  1.00  0.00     0.052 C 
HETATM   16  C   UNL     1      -1.546  -0.674   0.446  1.00  0.00     0.057 A 
HETATM   17  O   UNL     1      -0.404  -2.607   1.036  1.00  0.00    -0.287 OA
HETATM   18  C   UNL     1      -2.758   1.409   0.305  1.00  0.00     0.011 A 
HETATM   19  C   UNL     1      -2.725  -1.365   0.124  1.00  0.00     0.080 A 
HETATM   20  C   UNL     1      -3.923   0.715  -0.027  1.00  0.00     0.003 A 
HETATM   21  C   UNL     1      -3.904  -0.673  -0.128  1.00  0.00     0.037 A 
ENDROOT
BRANCH  10  22
HETATM   22  C   UNL     1       1.614  -2.431  -3.023  1.00  0.00     0.255 C 
HETATM   23  N   UNL     1       0.403  -2.054  -3.513  1.00  0.00    -0.366 N 
HETATM   24  H   UNL     1      -0.257  -2.774  -3.773  1.00  0.00     0.159 HD
HETATM   25  H   UNL     1       0.158  -1.079  -3.647  1.00  0.00     0.159 HD
HETATM   26  O   UNL     1       1.906  -3.611  -2.897  1.00  0.00    -0.268 OA
ENDBRANCH  10  22
BRANCH   8  27
HETATM   27  O   UNL     1       1.374   0.507  -3.588  1.00  0.00    -0.362 OA
HETATM   28  H   UNL     1       1.613   1.434  -3.779  1.00  0.00     0.217 HD
ENDBRANCH   8  27
BRANCH   2  29
HETATM   29  O   UNL     1       4.494  -1.143   0.646  1.00  0.00    -0.374 OA
HETATM   30  H   UNL     1       5.230  -1.483   0.094  1.00  0.00     0.211 HD
ENDBRANCH   2  29
BRANCH   4  31
HETATM   31  N   UNL     1       3.384   2.334  -2.641  1.00  0.00    -0.410 N 
HETATM   32  C   UNL     1       3.987   2.486  -3.964  1.00  0.00     0.143 C 
HETATM   33  C   UNL     1       2.301   3.267  -2.391  1.00  0.00     0.143 C 
ENDBRANCH   4  31
BRANCH   5  34
HETATM   34  O   UNL     1       2.261  -2.722   0.791  1.00  0.00    -0.361 OA
HETATM   35  H   UNL     1       3.204  -2.913   0.964  1.00  0.00     0.217 HD
ENDBRANCH   5  34
BRANCH   3  36
HETATM   36  O   UNL     1       2.381   2.749   0.326  1.00  0.00    -0.394 OA
HETATM   37  H   UNL     1       3.246   3.045   0.662  1.00  0.00     0.210 HD
ENDBRANCH   3  36
BRANCH  12  38
HETATM   38  O   UNL     1      -0.381   2.805   0.316  1.00  0.00    -0.385 OA
HETATM   39  H   UNL     1      -0.551   2.744  -0.638  1.00  0.00     0.211 HD
ENDBRANCH  12  38
BRANCH  19  40
HETATM   40  O   UNL     1      -2.787  -2.729   0.019  1.00  0.00    -0.360 OA
HETATM   41  H   UNL     1      -1.946  -3.100   0.376  1.00  0.00     0.217 HD
ENDBRANCH  19  40
TORSDOF 8
