REMARK  5 active torsions:
REMARK  status: ('A' for Active; 'I' for Inactive)
REMARK    1  A    between atoms: C_3  and  O_4 
REMARK    2  A    between atoms: C_5  and  C_6 
REMARK    3  A    between atoms: C_6  and  O_7 
REMARK    4  A    between atoms: C_8  and  C_9 
REMARK    5  A    between atoms: C_9  and  O_10 
ROOT
HETATM    1  C   UNL     1      -0.736   1.209   0.046  1.00  0.00     0.064 A 
HETATM    2  C   UNL     1      -1.342   2.580   0.092  1.00  0.00     0.073 C 
HETATM    3  C   UNL     1      -1.486   0.026   0.035  1.00  0.00     0.099 A 
HETATM    4  C   UNL     1      -0.846  -1.231   0.044  1.00  0.00     0.010 A 
HETATM    5  C   UNL     1       0.570  -1.240   0.026  1.00  0.00    -0.006 A 
HETATM    6  C   UNL     1       1.222  -0.003  -0.000  1.00  0.00     0.127 A 
HETATM    7  N   UNL     1       0.615   1.199   0.015  1.00  0.00    -0.262 NA
ENDROOT
BRANCH   4   8
HETATM    8  C   UNL     1      -1.615  -2.545   0.057  1.00  0.00     0.206 C 
BRANCH   8   9
HETATM    9  O   UNL     1      -3.038  -2.477   0.091  1.00  0.00    -0.396 OA
HETATM   10  H   UNL     1      -3.272  -1.539   0.223  1.00  0.00     0.209 HD
ENDBRANCH   8   9
ENDBRANCH   4   8
BRANCH   3  11
HETATM   11  O   UNL     1      -2.858   0.056   0.023  1.00  0.00    -0.358 OA
HETATM   12  H   UNL     1      -3.151   0.863  -0.433  1.00  0.00     0.217 HD
ENDBRANCH   3  11
BRANCH   5  13
HETATM   13  C   UNL     1       1.480  -2.446  -0.009  1.00  0.00     0.205 C 
BRANCH  13  14
HETATM   14  O   UNL     1       0.839  -3.693   0.177  1.00  0.00    -0.396 OA
HETATM   15  H   UNL     1       1.076  -4.014   1.064  1.00  0.00     0.209 HD
ENDBRANCH  13  14
ENDBRANCH   5  13
TORSDOF 5
