REMARK  6 active torsions:
REMARK  status: ('A' for Active; 'I' for Inactive)
REMARK    1  A    between atoms: C_6  and  C_7 
REMARK    2  A    between atoms: C_8  and  C_9 
REMARK    3  A    between atoms: C_11  and  C_12 
REMARK    4  A    between atoms: C_13  and  C_14 
REMARK    5  A    between atoms: C_16  and  C_17 
REMARK    6  A    between atoms: C_17  and  O_18 
ROOT
HETATM    1  C   UNL     1      -2.735  -0.872   0.008  1.00  0.00     0.009 C 
HETATM    2  C   UNL     1      -3.412  -2.034   0.012  1.00  0.00     0.007 C 
ENDROOT
BRANCH   2   3
HETATM    3  C   UNL     1      -4.870  -2.219   0.019  1.00  0.00    -0.062 C 
HETATM    4  C   UNL     1      -5.801  -1.027   0.028  1.00  0.00     0.048 C 
HETATM    5  C   UNL     1      -5.361  -3.482   0.024  1.00  0.00     0.007 C 
BRANCH   5   6
HETATM    6  C   UNL     1      -6.770  -3.830   0.033  1.00  0.00     0.001 C 
HETATM    7  C   UNL     1      -7.238  -5.091   0.045  1.00  0.00     0.006 C 
BRANCH   7   8
HETATM    8  C   UNL     1      -8.642  -5.498   0.058  1.00  0.00    -0.064 C 
HETATM    9  C   UNL     1      -9.752  -4.473   0.041  1.00  0.00     0.048 C 
HETATM   10  C   UNL     1      -8.945  -6.815   0.104  1.00  0.00     0.005 C 
BRANCH  10  11
HETATM   11  C   UNL     1     -10.336  -7.370   0.131  1.00  0.00     0.192 C 
BRANCH  11  12
HETATM   12  O   UNL     1     -10.273  -8.785   0.025  1.00  0.00    -0.397 OA
HETATM   13  H   UNL     1      -9.966  -8.986  -0.874  1.00  0.00     0.209 HD
ENDBRANCH  11  12
ENDBRANCH  10  11
ENDBRANCH   7   8
ENDBRANCH   5   6
ENDBRANCH   2   3
BRANCH   1  14
HETATM   14  C   UNL     1      -1.284  -0.552   0.017  1.00  0.00    -0.048 C 
HETATM   15  C   UNL     1      -0.277  -1.461  -0.000  1.00  0.00    -0.077 C 
HETATM   16  C   UNL     1       1.183  -1.087   0.033  1.00  0.00     0.034 C 
HETATM   17  C   UNL     1      -0.438  -2.963  -0.024  1.00  0.00     0.044 C 
HETATM   18  C   UNL     1       1.554   0.355  -0.238  1.00  0.00     0.005 C 
HETATM   19  C   UNL     1       0.517   1.388   0.141  1.00  0.00     0.014 C 
HETATM   20  C   UNL     1      -0.988   0.983   0.066  1.00  0.00    -0.020 C 
HETATM   21  C   UNL     1      -1.632   1.615   1.333  1.00  0.00     0.020 C 
HETATM   22  C   UNL     1      -1.590   1.681  -1.185  1.00  0.00     0.020 C 
ENDBRANCH   1  14
TORSDOF 6
