REMARK  7 active torsions:
REMARK  status: ('A' for Active; 'I' for Inactive)
REMARK    1  A    between atoms: C_1  and  O_7 
REMARK    2  A    between atoms: C_1  and  C_4 
REMARK    3  A    between atoms: C_1  and  C_2 
REMARK    4  A    between atoms: C_2  and  O_8 
REMARK    5  A    between atoms: C_2  and  C_3 
REMARK    6  A    between atoms: C_3  and  O_9 
REMARK    7  A    between atoms: C_4  and  O_10 
ROOT
HETATM    1  C   UNL     1       0.922  -0.050  -0.013  1.00  0.00     0.254 C 
ENDROOT
BRANCH   1   2
HETATM    2  O   UNL     1       2.354  -0.043  -0.047  1.00  0.00    -0.382 OA
HETATM    3  H   UNL     1       2.645   0.509  -0.794  1.00  0.00     0.210 HD
ENDBRANCH   1   2
BRANCH   1   4
HETATM    4  C   UNL     1       0.387   1.251   0.591  1.00  0.00     0.172 C 
HETATM    5  O   UNL     1      -0.209   1.327   1.656  1.00  0.00    -0.648 OA
BRANCH   4   6
HETATM    6  O   UNL     1       0.577   2.340  -0.200  1.00  0.00    -0.774 OA
HETATM    7  H   UNL     1       1.073   2.131  -1.027  1.00  0.00     0.167 HD
ENDBRANCH   4   6
ENDBRANCH   1   4
BRANCH   1   8
HETATM    8  C   UNL     1       0.384  -0.238  -1.434  1.00  0.00     0.254 C 
BRANCH   8   9
HETATM    9  O   UNL     1       0.844   0.856  -2.255  1.00  0.00    -0.382 OA
HETATM   10  H   UNL     1       0.651   0.590  -3.180  1.00  0.00     0.210 HD
ENDBRANCH   8   9
BRANCH   8  11
HETATM   11  C   UNL     1      -1.134  -0.394  -1.449  1.00  0.00     0.172 C 
HETATM   12  O   UNL     1      -1.694  -1.477  -1.523  1.00  0.00    -0.648 OA
BRANCH  11  13
HETATM   13  O   UNL     1      -1.814   0.774  -1.425  1.00  0.00    -0.774 OA
HETATM   14  H   UNL     1      -1.277   1.589  -1.333  1.00  0.00     0.167 HD
ENDBRANCH  11  13
ENDBRANCH   8  11
ENDBRANCH   1   8
TORSDOF 7
