REMARK  7 active torsions:
REMARK  status: ('A' for Active; 'I' for Inactive)
REMARK    1  A    between atoms: C_1  and  O_20 
REMARK    2  A    between atoms: C_3  and  C_15 
REMARK    3  A    between atoms: C_4  and  O_22 
REMARK    4  A    between atoms: C_7  and  O_23 
REMARK    5  A    between atoms: C_11  and  O_24 
REMARK    6  A    between atoms: C_13  and  N_18 
REMARK       I    between atoms: C_15  and  N_25 
REMARK    7  A    between atoms: C_19  and  O_28 
ROOT
HETATM    1  C   UNL     1       1.083   2.275  -2.653  1.00  0.00     0.177 C 
HETATM    2  C   UNL     1       0.273   1.873  -0.242  1.00  0.00     0.033 C 
HETATM    3  C   UNL     1       3.228   3.205  -3.979  1.00  0.00     0.112 C 
HETATM    4  C   UNL     1       0.136   2.525  -1.440  1.00  0.00     0.097 C 
HETATM    5  C   UNL     1       1.714   3.324  -3.691  1.00  0.00     0.208 C 
HETATM    6  C   UNL     1       2.328   1.624  -2.100  1.00  0.00     0.065 C 
HETATM    7  C   UNL     1       4.022   2.905  -2.917  1.00  0.00     0.085 C 
HETATM    8  C   UNL     1      -0.497   2.170   1.033  1.00  0.00     0.194 C 
HETATM    9  C   UNL     1       1.304   0.781   0.006  1.00  0.00     0.065 C 
HETATM   10  C   UNL     1      -0.344   1.214   2.198  1.00  0.00     0.057 A 
HETATM   11  C   UNL     1       0.675  -0.494   0.645  1.00  0.00     0.090 C 
HETATM   12  C   UNL     1       0.201  -0.079   2.021  1.00  0.00    -0.007 A 
HETATM   13  C   UNL     1       3.334   2.740  -1.578  1.00  0.00     0.144 C 
HETATM   14  C   UNL     1       2.045   0.424  -1.247  1.00  0.00     0.024 C 
HETATM   15  O   UNL     1       1.005   4.117  -4.313  1.00  0.00    -0.288 OA
HETATM   16  O   UNL     1      -1.145   3.197   1.206  1.00  0.00    -0.287 OA
HETATM   17  C   UNL     1      -0.705   1.613   3.497  1.00  0.00     0.080 A 
HETATM   18  C   UNL     1       0.329  -0.939   3.131  1.00  0.00     0.011 A 
HETATM   19  C   UNL     1       1.677  -1.671   0.645  1.00  0.00     0.052 C 
HETATM   20  C   UNL     1      -0.023  -0.518   4.408  1.00  0.00     0.003 A 
HETATM   21  C   UNL     1      -0.533   0.761   4.592  1.00  0.00     0.037 A 
ENDROOT
BRANCH   3  22
HETATM   22  C   UNL     1       3.783   2.874  -5.303  1.00  0.00     0.255 C 
HETATM   23  O   UNL     1       3.328   1.975  -5.992  1.00  0.00    -0.268 OA
HETATM   24  N   UNL     1       4.960   3.494  -5.613  1.00  0.00    -0.366 N 
HETATM   25  H   UNL     1       5.347   4.245  -5.055  1.00  0.00     0.159 HD
HETATM   26  H   UNL     1       5.421   3.241  -6.478  1.00  0.00     0.159 HD
ENDBRANCH   3  22
BRANCH   7  27
HETATM   27  O   UNL     1       5.324   2.440  -2.942  1.00  0.00    -0.362 OA
HETATM   28  H   UNL     1       5.533   2.082  -3.824  1.00  0.00     0.217 HD
ENDBRANCH   7  27
BRANCH   1  29
HETATM   29  O   UNL     1       0.358   1.369  -3.500  1.00  0.00    -0.374 OA
HETATM   30  H   UNL     1      -0.272   1.912  -4.013  1.00  0.00     0.211 HD
ENDBRANCH   1  29
BRANCH  13  31
HETATM   31  N   UNL     1       3.148   4.159  -1.199  1.00  0.00    -0.410 N 
HETATM   32  C   UNL     1       1.935   4.797  -0.743  1.00  0.00     0.143 C 
HETATM   33  C   UNL     1       4.326   4.788  -0.604  1.00  0.00     0.143 C 
ENDBRANCH  13  31
BRANCH   4  34
HETATM   34  O   UNL     1      -0.877   3.455  -1.624  1.00  0.00    -0.361 OA
HETATM   35  H   UNL     1      -0.824   3.845  -2.516  1.00  0.00     0.217 HD
ENDBRANCH   4  34
BRANCH  11  36
HETATM   36  O   UNL     1      -0.439  -0.941  -0.133  1.00  0.00    -0.385 OA
HETATM   37  H   UNL     1      -1.267  -0.748   0.341  1.00  0.00     0.211 HD
ENDBRANCH  11  36
BRANCH  17  38
HETATM   38  O   UNL     1      -1.219   2.849   3.784  1.00  0.00    -0.360 OA
HETATM   39  H   UNL     1      -1.368   3.317   2.931  1.00  0.00     0.217 HD
ENDBRANCH  17  38
TORSDOF 7
