REMARK  1 active torsions:
REMARK  status: ('A' for Active; 'I' for Inactive)
REMARK    1  A    between atoms: C_6  and  N_11 
ROOT
HETATM    1  C   UNL     1      -0.201  -0.661   0.040  1.00  0.00     0.183 A 
HETATM    2  N   UNL     1       0.985  -1.399   0.093  1.00  0.00    -0.198 NA
HETATM    3  C   UNL     1      -0.210   0.709   0.009  1.00  0.00     0.120 A 
HETATM    4  N   UNL     1       2.114   0.694   0.064  1.00  0.00    -0.320 N 
HETATM    5  C   UNL     1       0.983   1.468   0.030  1.00  0.00     0.134 A 
HETATM    6  C   UNL     1       2.070  -0.682   0.102  1.00  0.00     0.180 A 
HETATM    7  N   UNL     1      -1.467  -1.166   0.006  1.00  0.00    -0.222 NA
HETATM    8  N   UNL     1      -1.532   1.055  -0.036  1.00  0.00    -0.345 N 
HETATM    9  C   UNL     1      -2.250  -0.110  -0.038  1.00  0.00     0.210 A 
HETATM   10  S   UNL     1       1.001   3.126   0.013  1.00  0.00    -0.058 SA
HETATM   11  H   UNL     1       3.004   1.161   0.128  1.00  0.00     0.169 HD
HETATM   12  H   UNL     1      -1.906   1.995  -0.064  1.00  0.00     0.167 HD
ENDROOT
BRANCH   6  13
HETATM   13  N   UNL     1       3.279  -1.303   0.144  1.00  0.00    -0.272 NA
HETATM   14  H   UNL     1       3.172  -2.304  -0.004  1.00  0.00     0.127 HD
HETATM   15  H   UNL     1       3.999  -0.911  -0.447  1.00  0.00     0.127 HD
ENDBRANCH   6  13
TORSDOF 1
