REMARK  6 active torsions:
REMARK  status: ('A' for Active; 'I' for Inactive)
REMARK    1  A    between atoms: C_3  and  O_4 
REMARK    2  A    between atoms: C_12  and  C_14 
REMARK    3  A    between atoms: C_14  and  O_15 
REMARK    4  A    between atoms: O_15  and  C_16 
REMARK    5  A    between atoms: C_19  and  C_20 
REMARK    6  A    between atoms: C_20  and  C_21 
ROOT
HETATM    1  C   UNL     1      -3.603   1.254   0.003  1.00  0.00     0.213 C 
ENDROOT
BRANCH   1   2
HETATM    2  C   UNL     1      -2.363   0.424  -0.418  1.00  0.00     0.086 C 
HETATM    3  O   UNL     1      -1.199   1.183  -0.037  1.00  0.00    -0.337 OA
HETATM    4  C   UNL     1       0.002   0.509   0.001  1.00  0.00     0.083 A 
HETATM    5  C   UNL     1       0.092  -0.891   0.000  1.00  0.00    -0.015 A 
HETATM    6  C   UNL     1       1.162   1.314   0.050  1.00  0.00    -0.019 A 
HETATM    7  C   UNL     1       1.363  -1.504  -0.029  1.00  0.00    -0.019 A 
HETATM    8  C   UNL     1      -1.154  -1.735  -0.010  1.00  0.00     0.045 C 
HETATM    9  C   UNL     1       2.518  -0.700   0.005  1.00  0.00     0.078 A 
HETATM   10  C   UNL     1       1.470  -3.010  -0.083  1.00  0.00     0.052 C 
HETATM   11  C   UNL     1       2.445   0.707   0.048  1.00  0.00    -0.020 A 
HETATM   12  C   UNL     1       3.671   1.585   0.086  1.00  0.00     0.052 C 
HETATM   13  C   UNL     1      -2.386  -0.918   0.320  1.00  0.00     0.045 C 
HETATM   14  C   UNL     1       0.976   2.814   0.093  1.00  0.00     0.052 C 
HETATM   15  C   UNL     1      -2.387   0.267  -1.951  1.00  0.00     0.049 C 
BRANCH   9  16
HETATM   16  O   UNL     1       3.709  -1.377  -0.005  1.00  0.00    -0.360 OA
HETATM   17  H   UNL     1       4.458  -0.770   0.015  1.00  0.00     0.217 HD
ENDBRANCH   9  16
ENDBRANCH   1   2
BRANCH   1  18
HETATM   18  O   UNL     1      -4.781   0.462  -0.180  1.00  0.00    -0.348 OA
BRANCH  18  19
HETATM   19  C   UNL     1      -5.989   1.088  -0.167  1.00  0.00     0.068 A 
HETATM   20  C   UNL     1      -7.069   0.281  -0.527  1.00  0.00     0.037 A 
HETATM   21  C   UNL     1      -8.353   0.817  -0.639  1.00  0.00     0.010 A 
HETATM   22  C   UNL     1      -8.583   2.178  -0.393  1.00  0.00    -0.056 A 
HETATM   23  C   UNL     1      -7.505   2.958   0.048  1.00  0.00     0.010 A 
HETATM   24  C   UNL     1      -6.217   2.421   0.153  1.00  0.00     0.037 A 
BRANCH  22  25
HETATM   25  C   UNL     1      -9.978   2.725  -0.632  1.00  0.00     0.063 C 
BRANCH  25  26
HETATM   26  C   UNL     1     -10.142   4.245  -0.635  1.00  0.00     0.153 C 
HETATM   27  S   UNL     1     -11.902   4.745  -0.732  1.00  0.00    -0.054 SA
HETATM   28  C   UNL     1     -11.567   6.020  -1.878  1.00  0.00     0.287 C 
HETATM   29  O   UNL     1     -12.415   6.769  -2.332  1.00  0.00    -0.260 OA
HETATM   30  N   UNL     1     -10.262   6.008  -2.231  1.00  0.00    -0.287 N 
HETATM   31  C   UNL     1      -9.511   4.946  -1.829  1.00  0.00     0.239 C 
HETATM   32  H   UNL     1      -9.960   6.569  -3.012  1.00  0.00     0.172 HD
HETATM   33  O   UNL     1      -8.453   4.656  -2.369  1.00  0.00    -0.272 OA
ENDBRANCH  25  26
ENDBRANCH  22  25
ENDBRANCH  18  19
ENDBRANCH   1  18
TORSDOF 6
