REMARK  6 active torsions:
REMARK  status: ('A' for Active; 'I' for Inactive)
REMARK    1  A    between atoms: C_1  and  O_3 
REMARK    2  A    between atoms: C_1  and  C_4 
REMARK    3  A    between atoms: C_4  and  C_5 
REMARK    4  A    between atoms: C_4  and  C_8 
REMARK    5  A    between atoms: C_5  and  C_6 
REMARK    6  A    between atoms: C_8  and  C_9 
ROOT
HETATM    1  C   UNL     1       2.373  -0.010  -0.136  1.00  0.00     0.083 C 
ENDROOT
BRANCH   1   2
HETATM    2  C   UNL     1       0.852   0.100  -0.178  1.00  0.00     0.143 C 
HETATM    3  O   UNL     1       0.123  -0.503  -0.949  1.00  0.00    -0.650 OA
BRANCH   2   4
HETATM    4  O   UNL     1       0.359   0.974   0.733  1.00  0.00    -0.776 OA
HETATM    5  H   UNL     1       1.040   1.411   1.276  1.00  0.00     0.167 HD
ENDBRANCH   2   4
ENDBRANCH   1   2
BRANCH   1   6
HETATM    6  C   UNL     1       2.856  -1.296  -0.836  1.00  0.00     0.015 C 
BRANCH   6   7
HETATM    7  C   UNL     1       2.422  -2.584  -0.128  1.00  0.00    -0.004 C 
HETATM    8  C   UNL     1       2.945  -3.808  -0.867  1.00  0.00     0.005 C 
ENDBRANCH   6   7
ENDBRANCH   1   6
BRANCH   1   9
HETATM    9  C   UNL     1       2.953   1.259  -0.794  1.00  0.00     0.015 C 
BRANCH   9  10
HETATM   10  C   UNL     1       4.480   1.350  -0.744  1.00  0.00    -0.004 C 
HETATM   11  C   UNL     1       4.977   2.658  -1.342  1.00  0.00     0.005 C 
ENDBRANCH   9  10
ENDBRANCH   1   9
TORSDOF 6
