REMARK  5 active torsions:
REMARK  status: ('A' for Active; 'I' for Inactive)
REMARK    1  A    between atoms: C_10  and  C_11 
REMARK    2  A    between atoms: C_11  and  C_12 
REMARK    3  A    between atoms: C_11  and  C_16 
REMARK    4  A    between atoms: C_12  and  C_13 
REMARK    5  A    between atoms: C_22  and  O_23 
ROOT
HETATM    1  C   UNL     1      -2.696  -1.050   0.158  1.00  0.00     0.003 A 
HETATM    2  C   UNL     1      -2.785   0.323  -0.067  1.00  0.00     0.001 A 
HETATM    3  C   UNL     1      -1.627   1.086  -0.269  1.00  0.00     0.017 A 
HETATM    4  C   UNL     1      -0.362   0.482  -0.268  1.00  0.00     0.032 A 
HETATM    5  C   UNL     1      -0.306  -0.890  -0.028  1.00  0.00     0.092 A 
HETATM    6  C   UNL     1      -1.449  -1.662   0.184  1.00  0.00     0.038 A 
HETATM    7  O   UNL     1       0.917  -1.569  -0.000  1.00  0.00    -0.274 OA
HETATM    8  C   UNL     1       2.011  -0.914  -0.533  1.00  0.00     0.298 C 
HETATM    9  O   UNL     1       2.844  -1.536  -1.185  1.00  0.00    -0.259 OA
HETATM   10  C   UNL     1       2.098   0.547  -0.279  1.00  0.00     0.060 C 
HETATM   11  C   UNL     1       0.920   1.197  -0.372  1.00  0.00     0.091 C 
ENDROOT
BRANCH  10  12
HETATM   12  C   UNL     1       3.441   1.272  -0.116  1.00  0.00     0.067 C 
BRANCH  12  13
HETATM   13  C   UNL     1       3.592   1.991   1.253  1.00  0.00     0.092 C 
BRANCH  13  14
HETATM   14  C   UNL     1       2.683   3.175   1.513  1.00  0.00     0.124 C 
HETATM   15  C   UNL     1       2.853   4.412   0.666  1.00  0.00     0.091 C 
HETATM   16  O   UNL     1       1.907   3.174   2.472  1.00  0.00    -0.298 OA
ENDBRANCH  13  14
ENDBRANCH  12  13
BRANCH  12  17
HETATM   17  C   UNL     1       4.728   0.445  -0.261  1.00  0.00    -0.049 A 
HETATM   18  C   UNL     1       5.749   0.892  -1.117  1.00  0.00     0.008 A 
HETATM   19  C   UNL     1       6.957   0.195  -1.216  1.00  0.00     0.001 A 
HETATM   20  C   UNL     1       7.160  -0.964  -0.471  1.00  0.00     0.000 A 
HETATM   21  C   UNL     1       6.169  -1.411   0.397  1.00  0.00     0.001 A 
HETATM   22  C   UNL     1       4.976  -0.697   0.523  1.00  0.00     0.008 A 
ENDBRANCH  12  17
ENDBRANCH  10  12
BRANCH  11  23
HETATM   23  O   UNL     1       0.886   2.567  -0.521  1.00  0.00    -0.359 OA
HETATM   24  H   UNL     1       0.046   2.825  -0.935  1.00  0.00     0.217 HD
ENDBRANCH  11  23
TORSDOF 5
