REMARK  12 active torsions:
REMARK  status: ('A' for Active; 'I' for Inactive)
REMARK    1  A    between atoms: N_1  and  C_2 
REMARK    2  A    between atoms: C_2  and  C_4 
REMARK    3  A    between atoms: C_7  and  O_8 
REMARK    4  A    between atoms: O_8  and  C_9 
REMARK    5  A    between atoms: C_9  and  C_10 
REMARK    6  A    between atoms: C_10  and  C_11 
REMARK    7  A    between atoms: C_11  and  C_12 
REMARK    8  A    between atoms: C_12  and  C_13 
REMARK    9  A    between atoms: C_13  and  O_14 
REMARK   10  A    between atoms: O_14  and  C_15 
REMARK   11  A    between atoms: C_18  and  C_21 
REMARK   12  A    between atoms: C_21  and  N_22 
ROOT
HETATM    1  C   UNL     1       7.921   0.645   7.005  1.00  0.00     0.004 C 
ENDROOT
BRANCH   1   2
HETATM    2  C   UNL     1       7.052   1.608   6.202  1.00  0.00     0.027 C 
BRANCH   2   3
HETATM    3  C   UNL     1       6.228   0.840   5.169  1.00  0.00     0.175 C 
BRANCH   3   4
HETATM    4  O   UNL     1       5.361   1.749   4.493  1.00  0.00    -0.351 OA
BRANCH   4   5
HETATM    5  C   UNL     1       4.641   1.235   3.447  1.00  0.00     0.068 A 
HETATM    6  C   UNL     1       3.825   2.159   2.785  1.00  0.00     0.037 A 
HETATM    7  C   UNL     1       3.055   1.771   1.685  1.00  0.00     0.017 A 
HETATM    8  C   UNL     1       3.114   0.450   1.234  1.00  0.00     0.003 A 
HETATM    9  C   UNL     1       3.924  -0.479   1.890  1.00  0.00     0.017 A 
HETATM   10  C   UNL     1       4.674  -0.090   3.003  1.00  0.00     0.037 A 
BRANCH   8  11
HETATM   11  C   UNL     1       2.326   0.023   0.050  1.00  0.00     0.102 C 
HETATM   12  N   UNL     1       2.852  -0.803  -0.793  1.00  0.00    -0.288 NA
HETATM   13  H   UNL     1       2.208  -0.960  -1.570  1.00  0.00     0.188 HD
BRANCH  11  14
HETATM   14  N   UNL     1       1.055   0.485  -0.124  1.00  0.00    -0.287 NA
HETATM   15  H   UNL     1       0.463  -0.091  -0.710  1.00  0.00     0.125 HD
HETATM   16  H   UNL     1       0.578   0.760   0.729  1.00  0.00     0.125 HD
ENDBRANCH  11  14
ENDBRANCH   8  11
ENDBRANCH   4   5
ENDBRANCH   3   4
ENDBRANCH   2   3
ENDBRANCH   1   2
BRANCH   1  17
HETATM   17  C   UNL     1       8.807   1.355   8.027  1.00  0.00     0.027 C 
BRANCH  17  18
HETATM   18  C   UNL     1       9.567   0.330   8.867  1.00  0.00     0.175 C 
BRANCH  18  19
HETATM   19  O   UNL     1      10.420   1.011   9.785  1.00  0.00    -0.351 OA
BRANCH  19  20
HETATM   20  C   UNL     1      11.231   0.218  10.552  1.00  0.00     0.068 A 
HETATM   21  C   UNL     1      12.199   0.898  11.291  1.00  0.00     0.037 A 
HETATM   22  C   UNL     1      13.096   0.198  12.107  1.00  0.00     0.017 A 
HETATM   23  C   UNL     1      13.042  -1.200  12.193  1.00  0.00     0.003 A 
HETATM   24  C   UNL     1      12.058  -1.877  11.463  1.00  0.00     0.017 A 
HETATM   25  C   UNL     1      11.157  -1.172  10.653  1.00  0.00     0.037 A 
BRANCH  23  26
HETATM   26  C   UNL     1      14.026  -1.932  13.053  1.00  0.00     0.102 C 
HETATM   27  N   UNL     1      13.972  -3.203  13.308  1.00  0.00    -0.288 NA
HETATM   28  H   UNL     1      13.169  -3.658  12.879  1.00  0.00     0.188 HD
BRANCH  26  29
HETATM   29  N   UNL     1      15.078  -1.282  13.629  1.00  0.00    -0.287 NA
HETATM   30  H   UNL     1      15.563  -0.618  13.038  1.00  0.00     0.125 HD
HETATM   31  H   UNL     1      15.719  -1.957  14.035  1.00  0.00     0.125 HD
ENDBRANCH  26  29
ENDBRANCH  23  26
ENDBRANCH  19  20
ENDBRANCH  18  19
ENDBRANCH  17  18
ENDBRANCH   1  17
TORSDOF 12
