REMARK  1 active torsions:
REMARK  status: ('A' for Active; 'I' for Inactive)
REMARK    1  A    between atoms: C_3  and  N_8 
ROOT
HETATM    1  C   UNL     1      -0.765   1.189  -0.067  1.00  0.00     0.036 A 
HETATM    2  C   UNL     1      -1.394  -0.058  -0.077  1.00  0.00     0.009 A 
HETATM    3  C   UNL     1       0.634   1.256  -0.067  1.00  0.00     0.102 A 
HETATM    4  C   UNL     1      -0.636  -1.237  -0.090  1.00  0.00    -0.062 A 
HETATM    5  C   UNL     1       0.763  -1.157  -0.082  1.00  0.00     0.009 A 
HETATM    6  C   UNL     1      -1.305  -2.581  -0.104  1.00  0.00     0.048 C 
HETATM    7  C   UNL     1       1.403   0.085  -0.071  1.00  0.00     0.036 A 
ENDROOT
BRANCH   3   8
HETATM    8  N   UNL     1       1.300   2.563  -0.064  1.00  0.00    -0.116 N 
HETATM    9  O   UNL     1       2.539   2.581  -0.108  1.00  0.00    -0.532 OA
HETATM   10  O   UNL     1       0.586   3.575  -0.021  1.00  0.00    -0.532 OA
ENDBRANCH   3   8
TORSDOF 1
