REMARK  3 active torsions:
REMARK  status: ('A' for Active; 'I' for Inactive)
REMARK    1  A    between atoms: C_2  and  C_8 
REMARK    2  A    between atoms: C_3  and  N_7 
REMARK    3  A    between atoms: C_8  and  N_9 
ROOT
HETATM    1  N   UNL     1      -1.385   2.487  -0.447  1.00  0.00    -0.242 NA
HETATM    2  C   UNL     1      -1.155   3.541   0.015  1.00  0.00     0.332 C 
HETATM    3  O   UNL     1      -0.901   4.589   0.481  1.00  0.00    -0.260 OA
ENDROOT
BRANCH   1   4
HETATM    4  C   UNL     1      -0.707   1.353   0.216  1.00  0.00     0.113 C 
HETATM    5  C   UNL     1       0.761   1.292  -0.244  1.00  0.00     0.038 C 
HETATM    6  C   UNL     1       1.523   0.041   0.250  1.00  0.00    -0.023 C 
HETATM    7  C   UNL     1       0.706  -1.239  -0.072  1.00  0.00     0.019 C 
HETATM    8  C   UNL     1       1.817   0.158   1.762  1.00  0.00     0.017 C 
HETATM    9  C   UNL     1      -0.799  -1.229   0.305  1.00  0.00    -0.045 C 
HETATM   10  C   UNL     1      -1.459   0.075  -0.191  1.00  0.00     0.036 C 
HETATM   11  C   UNL     1      -1.478  -2.427  -0.400  1.00  0.00     0.015 C 
HETATM   12  C   UNL     1      -1.032  -1.424   1.815  1.00  0.00     0.015 C 
BRANCH   6  13
HETATM   13  C   UNL     1       2.923  -0.035  -0.438  1.00  0.00     0.162 C 
BRANCH  13  14
HETATM   14  N   UNL     1       2.796  -0.100  -1.903  1.00  0.00    -0.247 NA
HETATM   15  C   UNL     1       3.826  -0.056  -2.465  1.00  0.00     0.332 C 
HETATM   16  O   UNL     1       4.866  -0.011  -3.010  1.00  0.00    -0.260 OA
ENDBRANCH  13  14
ENDBRANCH   6  13
ENDBRANCH   1   4
TORSDOF 3
