REMARK  3 active torsions:
REMARK  status: ('A' for Active; 'I' for Inactive)
REMARK    1  A    between atoms: P_1  and  N_2 
REMARK    2  A    between atoms: P_1  and  S_5 
REMARK    3  A    between atoms: P_1  and  O_7 
REMARK       I    between atoms: N_2  and  C_3 
ROOT
HETATM    1  P   UNL     1       0.939   0.058  -0.054  1.00  0.00     0.353 P 
HETATM    2  O   UNL     1       0.888  -1.470  -0.034  1.00  0.00    -0.254 OA
ENDROOT
BRANCH   1   3
HETATM    3  N   UNL     1       0.961   0.515  -1.729  1.00  0.00    -0.279 N 
HETATM    4  C   UNL     1       0.787   1.826  -2.051  1.00  0.00     0.221 C 
HETATM    5  O   UNL     1       0.756   2.713  -1.201  1.00  0.00    -0.274 OA
HETATM    6  C   UNL     1       0.684   2.117  -3.520  1.00  0.00     0.117 C 
HETATM    7  H   UNL     1       0.801  -0.242  -2.373  1.00  0.00     0.172 HD
ENDBRANCH   1   3
BRANCH   1   8
HETATM    8  S   UNL     1      -1.181   0.058  -0.054  1.00  0.00    -0.056 SA
HETATM    9  C   UNL     1      -1.577   1.143   1.326  1.00  0.00     0.102 C 
ENDBRANCH   1   8
BRANCH   1  10
HETATM   10  O   UNL     1       2.669   0.058  -0.054  1.00  0.00    -0.316 OA
HETATM   11  C   UNL     1       3.313   1.317  -0.066  1.00  0.00     0.213 C 
ENDBRANCH   1  10
TORSDOF 3
