REMARK  6 active torsions:
REMARK  status: ('A' for Active; 'I' for Inactive)
REMARK       I    between atoms: C_1  and  N_4 
REMARK    1  A    between atoms: C_1  and  C_3 
REMARK    2  A    between atoms: N_4  and  C_6 
REMARK    3  A    between atoms: N_4  and  C_10 
REMARK    4  A    between atoms: C_6  and  O_7 
REMARK    5  A    between atoms: O_7  and  C_8 
REMARK    6  A    between atoms: C_11  and  C_16 
ROOT
HETATM    1  C   UNL     1      -0.973  -0.060  -1.105  1.00  0.00     0.051 A 
HETATM    2  C   UNL     1      -1.646  -1.302  -1.117  1.00  0.00    -0.031 A 
HETATM    3  C   UNL     1      -1.709   1.155  -1.175  1.00  0.00    -0.034 A 
HETATM    4  C   UNL     1      -3.056  -1.288  -1.222  1.00  0.00     0.009 A 
HETATM    5  C   UNL     1      -3.106   1.112  -1.297  1.00  0.00     0.009 A 
HETATM    6  C   UNL     1      -3.777  -0.102  -1.318  1.00  0.00     0.001 A 
HETATM    7  C   UNL     1      -1.065   2.518  -1.158  1.00  0.00     0.050 C 
ENDROOT
BRANCH   1   8
HETATM    8  N   UNL     1       0.451  -0.007  -1.046  1.00  0.00    -0.294 N 
HETATM    9  C   UNL     1       1.032   0.232   0.212  1.00  0.00     0.239 C 
HETATM   10  O   UNL     1       0.375   0.178   1.256  1.00  0.00    -0.272 OA
BRANCH   9  11
HETATM   11  C   UNL     1       2.533   0.503   0.225  1.00  0.00     0.217 C 
HETATM   12 CL   UNL     1       3.072   1.137   1.800  1.00  0.00    -0.121 Cl
ENDBRANCH   9  11
BRANCH   8  13
HETATM   13  C   UNL     1       1.100   0.338  -2.308  1.00  0.00     0.301 C 
BRANCH  13  14
HETATM   14  O   UNL     1       2.352  -0.334  -2.394  1.00  0.00    -0.372 OA
BRANCH  14  15
HETATM   15  C   UNL     1       2.978  -0.121  -3.656  1.00  0.00     0.165 C 
HETATM   16  C   UNL     1       4.433  -0.529  -3.538  1.00  0.00     0.033 C 
ENDBRANCH  14  15
ENDBRANCH  13  14
ENDBRANCH   8  13
ENDBRANCH   1   8
BRANCH   2  17
HETATM   17  C   UNL     1      -1.049  -2.693  -1.002  1.00  0.00     0.036 C 
HETATM   18  C   UNL     1       0.452  -2.922  -0.969  1.00  0.00     0.010 C 
ENDBRANCH   2  17
TORSDOF 6
