REMARK  0 active torsions:
REMARK  status: ('A' for Active; 'I' for Inactive)
ROOT
HETATM    1  C   UNL     1       0.577   2.356  -0.001  1.00  0.00     0.013 A 
HETATM    2  C   UNL     1      -0.777   2.298  -0.002  1.00  0.00     0.013 A 
HETATM    3  C   UNL     1      -0.006   0.094  -0.001  1.00  0.00    -0.005 A 
HETATM    4  C   UNL     1      -1.175   0.843  -0.002  1.00  0.00    -0.024 A 
HETATM    5  C   UNL     1       1.097   0.939  -0.001  1.00  0.00    -0.024 A 
HETATM    6  C   UNL     1       0.052  -1.271  -0.000  1.00  0.00    -0.024 A 
HETATM    7  C   UNL     1       2.481  -0.997   0.001  1.00  0.00     0.002 A 
HETATM    8  C   UNL     1      -2.391  -1.203  -0.001  1.00  0.00     0.002 A 
HETATM    9  C   UNL     1       2.380   0.409   0.000  1.00  0.00     0.012 A 
HETATM   10  C   UNL     1      -2.410   0.206  -0.002  1.00  0.00     0.012 A 
HETATM   11  C   UNL     1      -1.186  -1.940  -0.001  1.00  0.00     0.012 A 
HETATM   12  C   UNL     1       1.342  -1.833   0.001  1.00  0.00     0.012 A 
ENDROOT
TORSDOF 0
