REMARK  6 active torsions:
REMARK  status: ('A' for Active; 'I' for Inactive)
REMARK    1  A    between atoms: O_1  and  C_3 
REMARK    2  A    between atoms: C_3  and  C_25 
REMARK    3  A    between atoms: C_8  and  N_16 
REMARK    4  A    between atoms: C_11  and  O_15 
REMARK       I    between atoms: N_16  and  C_17 
REMARK       I    between atoms: C_17  and  N_18 
REMARK    5  A    between atoms: N_18  and  S_19 
REMARK    6  A    between atoms: S_19  and  C_24 
ROOT
HETATM    1  O   UNL     1      -0.279   6.864  -0.443  1.00  0.00    -0.245 OA
HETATM    2  N   UNL     1      -2.395   7.743  -0.319  1.00  0.00    -0.137 N 
HETATM    3  C   UNL     1      -1.489   6.720  -0.359  1.00  0.00     0.348 C 
HETATM    4  N   UNL     1      -2.060   5.433  -0.282  1.00  0.00    -0.231 N 
HETATM    5  H   UNL     1      -3.378   7.583  -0.208  1.00  0.00     0.189 HD
HETATM    6  H   UNL     1      -3.022   5.320  -0.014  1.00  0.00     0.183 HD
ENDROOT
BRANCH   4   7
HETATM    7  S   UNL     1      -0.992   4.145  -0.050  1.00  0.00     0.267 S 
HETATM    8  O   UNL     1      -0.510   4.310   1.304  1.00  0.00    -0.200 OA
HETATM    9  O   UNL     1      -0.174   4.071  -1.240  1.00  0.00    -0.200 OA
BRANCH   7  10
HETATM   10  C   UNL     1      -1.912   2.619  -0.036  1.00  0.00     0.096 A 
HETATM   11  C   UNL     1      -3.312   2.615  -0.140  1.00  0.00     0.026 A 
HETATM   12  C   UNL     1      -4.012   1.404  -0.154  1.00  0.00     0.002 A 
HETATM   13  C   UNL     1      -3.326   0.197  -0.072  1.00  0.00     0.001 A 
HETATM   14  C   UNL     1      -1.935   0.193   0.023  1.00  0.00     0.019 A 
HETATM   15  C   UNL     1      -1.202   1.397   0.039  1.00  0.00     0.062 A 
BRANCH  15  16
HETATM   16  C   UNL     1       0.294   1.317   0.163  1.00  0.00     0.294 C 
HETATM   17  O   UNL     1       1.028   2.228   0.496  1.00  0.00    -0.259 OA
BRANCH  16  18
HETATM   18  O   UNL     1       0.733   0.063  -0.131  1.00  0.00    -0.322 OA
HETATM   19  C   UNL     1       2.152  -0.085  -0.025  1.00  0.00     0.213 C 
ENDBRANCH  16  18
ENDBRANCH  15  16
ENDBRANCH   7  10
ENDBRANCH   4   7
BRANCH   2  20
HETATM   20  C   UNL     1      -2.026   9.088  -0.404  1.00  0.00     0.736 A 
HETATM   21  N   UNL     1      -0.762   9.414  -0.600  1.00  0.00    -0.018 NA
HETATM   22  C   UNL     1      -0.493  10.706  -0.662  1.00  0.00     0.286 A 
HETATM   23  N   UNL     1      -1.388  11.675  -0.546  1.00  0.00    -0.191 NA
HETATM   24  C   UNL     1      -2.636  11.254  -0.356  1.00  0.00     0.145 A 
HETATM   25  N   UNL     1      -3.015   9.970  -0.283  1.00  0.00    -0.047 NA
HETATM   26  C   UNL     1      -3.682  12.315  -0.206  1.00  0.00     0.094 C 
BRANCH  22  27
HETATM   27  O   UNL     1       0.806  11.123  -0.862  1.00  0.00    -0.324 OA
HETATM   28  C   UNL     1       1.721  10.036  -0.975  1.00  0.00     0.213 C 
ENDBRANCH  22  27
ENDBRANCH   2  20
TORSDOF 6
