REMARK  5 active torsions:
REMARK  status: ('A' for Active; 'I' for Inactive)
REMARK    1  A    between atoms: C_5  and  N_9 
REMARK    2  A    between atoms: C_6  and  N_8 
REMARK    3  A    between atoms: S_7  and  C_12 
REMARK    4  A    between atoms: N_8  and  C_11 
REMARK    5  A    between atoms: N_9  and  C_15 
ROOT
HETATM    1  N   UNL     1       7.168  -0.324  -1.987  1.00  0.00    -0.192 NA
HETATM    2  C   UNL     1       6.527   0.800  -1.707  1.00  0.00     0.206 A 
HETATM    3  C   UNL     1       6.397  -1.397  -2.109  1.00  0.00     0.193 A 
HETATM    4  N   UNL     1       5.219   0.883  -1.521  1.00  0.00    -0.187 NA
HETATM    5  N   UNL     1       5.077  -1.411  -1.979  1.00  0.00    -0.192 NA
HETATM    6  C   UNL     1       4.538  -0.247  -1.663  1.00  0.00     0.207 A 
ENDROOT
BRANCH   6   7
HETATM    7  N   UNL     1       3.159  -0.266  -1.467  1.00  0.00    -0.257 NA
HETATM    8  H   UNL     1       2.888  -1.230  -1.644  1.00  0.00     0.131 HD
BRANCH   7   9
HETATM    9  C   UNL     1       2.750   0.190  -0.137  1.00  0.00     0.055 C 
HETATM   10  C   UNL     1       1.234   0.394  -0.152  1.00  0.00     0.026 C 
HETATM   11  C   UNL     1       3.120  -0.847   0.929  1.00  0.00     0.026 C 
ENDBRANCH   7   9
ENDBRANCH   6   7
BRANCH   2  12
HETATM   12  N   UNL     1       7.231   1.995  -1.597  1.00  0.00    -0.261 NA
HETATM   13  H   UNL     1       6.563   2.741  -1.764  1.00  0.00     0.130 HD
BRANCH  12  14
HETATM   14  C   UNL     1       8.471   2.056  -2.349  1.00  0.00     0.091 C 
HETATM   15  C   UNL     1       9.018   3.475  -2.326  1.00  0.00     0.021 C 
ENDBRANCH  12  14
ENDBRANCH   2  12
BRANCH   3  16
HETATM   16  S   UNL     1       7.157  -2.967  -2.463  1.00  0.00    -0.094 SA
HETATM   17  C   UNL     1       8.902  -2.496  -2.448  1.00  0.00     0.099 C 
ENDBRANCH   3  16
TORSDOF 5
