REMARK  4 active torsions:
REMARK  status: ('A' for Active; 'I' for Inactive)
REMARK    1  A    between atoms: N_1  and  C_7 
REMARK    2  A    between atoms: N_2  and  C_6 
REMARK    3  A    between atoms: C_3  and  N_5 
REMARK    4  A    between atoms: C_4  and  N_5 
ROOT
HETATM    1  N   UNL     1      -1.123   1.006  -0.109  1.00  0.00    -0.341 N 
HETATM    2  C   UNL     1      -1.843   2.261  -0.293  1.00  0.00     0.158 C 
ENDROOT
BRANCH   1   3
HETATM    3  C   UNL     1      -1.857  -0.157   0.096  1.00  0.00     0.210 C 
HETATM    4  N   UNL     1      -1.419  -1.353  -0.084  1.00  0.00    -0.243 NA
BRANCH   4   5
HETATM    5  C   UNL     1      -2.196  -2.516   0.049  1.00  0.00     0.064 A 
HETATM    6  C   UNL     1      -1.517  -3.747   0.153  1.00  0.00    -0.033 A 
HETATM    7  C   UNL     1      -2.235  -4.957   0.146  1.00  0.00     0.015 A 
HETATM    8  C   UNL     1      -0.016  -3.826   0.244  1.00  0.00     0.050 C 
HETATM    9  C   UNL     1      -3.627  -4.967   0.051  1.00  0.00    -0.061 A 
HETATM   10  C   UNL     1      -4.304  -3.747  -0.017  1.00  0.00     0.009 A 
HETATM   11  C   UNL     1      -4.382  -6.259  -0.030  1.00  0.00     0.048 C 
HETATM   12  C   UNL     1      -3.595  -2.538  -0.024  1.00  0.00     0.033 A 
ENDBRANCH   4   5
ENDBRANCH   1   3
BRANCH   1  13
HETATM   13  C   UNL     1       0.258   1.054  -0.245  1.00  0.00     0.210 C 
HETATM   14  N   UNL     1       1.109   0.361   0.432  1.00  0.00    -0.243 NA
BRANCH  14  15
HETATM   15  C   UNL     1       2.477   0.394   0.120  1.00  0.00     0.064 A 
HETATM   16  C   UNL     1       3.288   1.540   0.055  1.00  0.00    -0.033 A 
HETATM   17  C   UNL     1       4.665   1.392  -0.222  1.00  0.00     0.015 A 
HETATM   18  C   UNL     1       2.763   2.935   0.245  1.00  0.00     0.050 C 
HETATM   19  C   UNL     1       5.249   0.129  -0.385  1.00  0.00    -0.061 A 
HETATM   20  C   UNL     1       4.440  -1.002  -0.295  1.00  0.00     0.009 A 
HETATM   21  C   UNL     1       6.720  -0.028  -0.631  1.00  0.00     0.048 C 
HETATM   22  C   UNL     1       3.076  -0.862  -0.047  1.00  0.00     0.033 A 
ENDBRANCH  14  15
ENDBRANCH   1  13
TORSDOF 4
