REMARK  0 active torsions:
REMARK  status: ('A' for Active; 'I' for Inactive)
ROOT
HETATM    1  C   UNL     1       0.000   1.394   0.010  1.00  0.00     0.024 A 
HETATM    2  C   UNL     1       0.000  -1.393   0.012  1.00  0.00     0.024 A 
HETATM    3  C   UNL     1      -1.225   0.706   0.016  1.00  0.00    -0.025 A 
HETATM    4  C   UNL     1       1.225   0.706   0.016  1.00  0.00    -0.025 A 
HETATM    5  C   UNL     1       1.225  -0.705   0.017  1.00  0.00    -0.025 A 
HETATM    6  C   UNL     1      -1.225  -0.705   0.017  1.00  0.00    -0.025 A 
HETATM    7  C   UNL     1      -2.450  -1.392   0.029  1.00  0.00     0.012 A 
HETATM    8  C   UNL     1      -2.450   1.393   0.028  1.00  0.00     0.012 A 
HETATM    9  C   UNL     1       2.450   1.393   0.027  1.00  0.00     0.012 A 
HETATM   10  C   UNL     1       2.451  -1.392   0.029  1.00  0.00     0.012 A 
HETATM   11  C   UNL     1      -3.660   0.696   0.045  1.00  0.00     0.001 A 
HETATM   12  C   UNL     1       3.660   0.696   0.044  1.00  0.00     0.001 A 
HETATM   13  C   UNL     1       3.660  -0.695   0.045  1.00  0.00     0.001 A 
HETATM   14  C   UNL     1      -3.660  -0.696   0.045  1.00  0.00     0.001 A 
ENDROOT
TORSDOF 0
