REMARK  2 active torsions:
REMARK  status: ('A' for Active; 'I' for Inactive)
REMARK    1  A    between atoms: C_1  and  N_3 
REMARK    2  A    between atoms: C_2  and  O_4 
ROOT
HETATM    1  C   UNL     1      -1.492  -0.006  -0.114  1.00  0.00     0.039 A 
HETATM    2  C   UNL     1      -0.763  -1.209  -0.142  1.00  0.00     0.089 A 
HETATM    3  C   UNL     1      -0.775   1.199   0.048  1.00  0.00     0.026 A 
HETATM    4  C   UNL     1       0.644  -1.160  -0.107  1.00  0.00     0.038 A 
HETATM    5  C   UNL     1       0.621   1.231   0.074  1.00  0.00     0.002 A 
HETATM    6  C   UNL     1       1.334   0.048  -0.012  1.00  0.00     0.003 A 
ENDROOT
BRANCH   1   7
HETATM    7  N   UNL     1      -2.895   0.089  -0.047  1.00  0.00    -0.300 NA
HETATM    8  H   UNL     1      -3.371  -0.576  -0.641  1.00  0.00     0.124 HD
HETATM    9  H   UNL     1      -3.241   1.027  -0.225  1.00  0.00     0.124 HD
ENDBRANCH   1   7
BRANCH   2  10
HETATM   10  O   UNL     1      -1.199  -2.506  -0.199  1.00  0.00    -0.354 OA
HETATM   11  C   UNL     1      -2.580  -2.803  -0.235  1.00  0.00     0.210 C 
ENDBRANCH   2  10
TORSDOF 2
