REMARK  2 active torsions:
REMARK  status: ('A' for Active; 'I' for Inactive)
REMARK    1  A    between atoms: C_1  and  C_7 
REMARK    2  A    between atoms: C_2  and  C_8 
ROOT
HETATM    1  C   UNL     1      -0.583   1.239   0.029  1.00  0.00     0.204 A 
HETATM    2  C   UNL     1       0.679  -1.159   0.018  1.00  0.00     0.204 A 
HETATM    3  N   UNL     1      -1.303   0.102   0.087  1.00  0.00    -0.125 NA
HETATM    4  N   UNL     1      -0.660  -1.115   0.074  1.00  0.00    -0.125 NA
HETATM    5  N   UNL     1       0.755   1.196  -0.047  1.00  0.00    -0.125 NA
HETATM    6  N   UNL     1       1.398  -0.020  -0.043  1.00  0.00    -0.125 NA
ENDROOT
BRANCH   1   7
HETATM    7  C   UNL     1      -1.306   2.524  -0.022  1.00  0.00     0.037 A 
HETATM    8  C   UNL     1      -0.728   3.789   0.214  1.00  0.00     0.048 A 
HETATM    9 CL   UNL     1       0.927   4.025   0.675  1.00  0.00    -0.083 Cl
HETATM   10  C   UNL     1      -1.490   4.967   0.119  1.00  0.00     0.025 A 
HETATM   11  C   UNL     1      -2.843   4.918  -0.201  1.00  0.00     0.002 A 
HETATM   12  C   UNL     1      -3.446   3.690  -0.423  1.00  0.00     0.001 A 
HETATM   13  C   UNL     1      -2.690   2.517  -0.336  1.00  0.00     0.017 A 
ENDBRANCH   1   7
BRANCH   2  14
HETATM   14  C   UNL     1       1.403  -2.446  -0.032  1.00  0.00     0.037 A 
HETATM   15  C   UNL     1       0.823  -3.716   0.173  1.00  0.00     0.048 A 
HETATM   16 CL   UNL     1      -0.846  -3.972   0.565  1.00  0.00    -0.083 Cl
HETATM   17  C   UNL     1       1.593  -4.891   0.086  1.00  0.00     0.025 A 
HETATM   18  C   UNL     1       2.954  -4.836  -0.196  1.00  0.00     0.002 A 
HETATM   19  C   UNL     1       3.558  -3.604  -0.391  1.00  0.00     0.001 A 
HETATM   20  C   UNL     1       2.795  -2.434  -0.310  1.00  0.00     0.017 A 
ENDBRANCH   2  14
TORSDOF 2
