REMARK  7 active torsions:
REMARK  status: ('A' for Active; 'I' for Inactive)
REMARK    1  A    between atoms: C_3  and  O_10 
REMARK    2  A    between atoms: C_5  and  C_8 
REMARK    3  A    between atoms: C_5  and  O_17 
REMARK    4  A    between atoms: C_8  and  O_9 
REMARK    5  A    between atoms: O_9  and  C_15 
REMARK    6  A    between atoms: O_10  and  C_16 
REMARK    7  A    between atoms: O_17  and  C_25 
ROOT
HETATM    1  C   UNL     1       7.117  -0.652  -0.531  1.00  0.00     0.070 C 
HETATM    2  C   UNL     1       4.717   0.624   0.137  1.00  0.00     0.078 C 
HETATM    3  C   UNL     1       6.260  -1.223   0.407  1.00  0.00     0.039 C 
HETATM    4  C   UNL     1       6.847   0.633  -1.006  1.00  0.00     0.039 C 
HETATM    5  C   UNL     1       5.078  -0.568   0.768  1.00  0.00     0.040 C 
HETATM    6  C   UNL     1       5.644   1.267  -0.683  1.00  0.00     0.040 C 
ENDROOT
BRANCH   2   7
HETATM    7  O   UNL     1       3.510   1.253   0.328  1.00  0.00    -0.291 OA
BRANCH   7   8
HETATM    8  C   UNL     1       2.325   0.578   0.116  1.00  0.00     0.188 A 
HETATM    9  N   UNL     1       1.220   1.357   0.217  1.00  0.00    -0.221 NA
HETATM   10  C   UNL     1       0.017   0.753   0.096  1.00  0.00     0.088 A 
HETATM   11  C   UNL     1      -0.094  -0.647  -0.091  1.00  0.00     0.087 A 
HETATM   12  C   UNL     1      -1.153   1.504   0.159  1.00  0.00     0.036 A 
HETATM   13  N   UNL     1       0.995  -1.413  -0.235  1.00  0.00    -0.254 NA
HETATM   14  C   UNL     1      -1.343  -1.248  -0.131  1.00  0.00     0.057 A 
HETATM   15  C   UNL     1       2.188  -0.774  -0.155  1.00  0.00     0.175 A 
HETATM   16  C   UNL     1      -2.499  -0.482  -0.036  1.00  0.00     0.036 A 
HETATM   17  C   UNL     1      -2.411   0.899   0.088  1.00  0.00     0.026 A 
HETATM   18 CL   UNL     1      -4.038  -1.246  -0.077  1.00  0.00    -0.084 Cl
ENDBRANCH   7   8
ENDBRANCH   2   7
BRANCH   1  19
HETATM   19  O   UNL     1       8.240  -1.240  -1.037  1.00  0.00    -0.336 OA
BRANCH  19  20
HETATM   20  C   UNL     1       8.243  -2.660  -1.196  1.00  0.00     0.224 C 
HETATM   21  C   UNL     1       9.690  -3.038  -1.528  1.00  0.00     0.051 C 
BRANCH  20  22
HETATM   22  C   UNL     1       7.324  -3.232  -2.299  1.00  0.00     0.288 C 
HETATM   23  O   UNL     1       7.706  -3.857  -3.280  1.00  0.00    -0.262 OA
BRANCH  22  24
HETATM   24  O   UNL     1       6.010  -3.013  -2.002  1.00  0.00    -0.320 OA
BRANCH  24  25
HETATM   25  C   UNL     1       5.082  -3.545  -2.957  1.00  0.00     0.174 C 
HETATM   26  C   UNL     1       3.692  -3.092  -2.563  1.00  0.00     0.034 C 
ENDBRANCH  24  25
ENDBRANCH  22  24
ENDBRANCH  20  22
ENDBRANCH  19  20
ENDBRANCH   1  19
TORSDOF 7
