REMARK  5 active torsions:
REMARK  status: ('A' for Active; 'I' for Inactive)
REMARK    1  A    between atoms: C_1  and  N_2 
REMARK    2  A    between atoms: C_1  and  C_3 
REMARK    3  A    between atoms: C_1  and  O_8 
REMARK    4  A    between atoms: C_3  and  C_9 
REMARK    5  A    between atoms: O_8  and  C_11 
ROOT
HETATM    1  C   UNL     1       1.189  -0.006  -0.050  1.00  0.00     0.324 C 
ENDROOT
BRANCH   1   2
HETATM    2  N   UNL     1       0.516  -0.199  -1.337  1.00  0.00    -0.225 N 
HETATM    3  N   UNL     1      -0.040   0.841  -2.002  1.00  0.00    -0.162 NA
HETATM    4  C   UNL     1      -0.373   0.264  -3.160  1.00  0.00     0.256 A 
HETATM    5  N   UNL     1      -0.063  -1.062  -3.262  1.00  0.00    -0.234 NA
HETATM    6  C   UNL     1       0.496  -1.325  -2.104  1.00  0.00     0.233 A 
ENDBRANCH   1   2
BRANCH   1   7
HETATM    7  C   UNL     1       0.675  -1.058   0.953  1.00  0.00     0.184 C 
HETATM    8  O   UNL     1      -0.552  -1.153   1.140  1.00  0.00    -0.292 OA
BRANCH   7   9
HETATM    9  C   UNL     1       1.606  -2.022   1.730  1.00  0.00     0.014 C 
HETATM   10  C   UNL     1       1.249  -1.887   3.224  1.00  0.00     0.023 C 
HETATM   11  C   UNL     1       1.274  -3.451   1.263  1.00  0.00     0.023 C 
HETATM   12  C   UNL     1       3.117  -1.818   1.601  1.00  0.00     0.023 C 
ENDBRANCH   7   9
ENDBRANCH   1   7
BRANCH   1  13
HETATM   13  O   UNL     1       2.593   0.022  -0.280  1.00  0.00    -0.317 OA
BRANCH  13  14
HETATM   14  C   UNL     1       3.081   1.117  -0.939  1.00  0.00     0.072 A 
HETATM   15  C   UNL     1       2.791   2.435  -0.588  1.00  0.00     0.038 A 
HETATM   16  C   UNL     1       3.340   3.487  -1.329  1.00  0.00     0.026 A 
HETATM   17  C   UNL     1       4.187   3.215  -2.402  1.00  0.00     0.034 A 
HETATM   18  C   UNL     1       4.504   1.900  -2.733  1.00  0.00     0.026 A 
HETATM   19 CL   UNL     1       4.853   4.511  -3.316  1.00  0.00    -0.084 Cl
HETATM   20  C   UNL     1       3.958   0.851  -1.993  1.00  0.00     0.038 A 
ENDBRANCH  13  14
ENDBRANCH   1  13
TORSDOF 5
