REMARK  8 active torsions:
REMARK  status: ('A' for Active; 'I' for Inactive)
REMARK    1  A    between atoms: C_1  and  N_5 
REMARK    2  A    between atoms: C_2  and  N_4 
REMARK    3  A    between atoms: C_3  and  N_10 
REMARK    4  A    between atoms: C_6  and  C_7 
REMARK    5  A    between atoms: N_10  and  C_18 
REMARK    6  A    between atoms: N_10  and  C_19 
REMARK    7  A    between atoms: C_19  and  C_20 
REMARK    8  A    between atoms: C_20  and  C_21 
ROOT
HETATM    1  C   UNL     1      -0.695   1.081  -0.143  1.00  0.00     0.132 C 
HETATM    2  C   UNL     1      -0.579  -1.189   0.428  1.00  0.00     0.132 C 
HETATM    3  C   UNL     1      -1.456  -0.106   0.118  1.00  0.00     0.097 C 
HETATM    4  C   UNL     1       1.511   0.019  -0.045  1.00  0.00     0.052 C 
HETATM    5  C   UNL     1       0.725   1.145  -0.232  1.00  0.00     0.054 C 
HETATM    6  C   UNL     1       0.846  -1.149   0.305  1.00  0.00     0.054 C 
ENDROOT
BRANCH   3   7
HETATM    7  N   UNL     1      -2.875  -0.220   0.140  1.00  0.00    -0.377 N 
BRANCH   7   8
HETATM    8  C   UNL     1      -3.635  -1.256  -0.638  1.00  0.00     0.118 C 
HETATM    9  C   UNL     1      -3.101  -2.636  -0.929  1.00  0.00     0.026 C 
ENDBRANCH   7   8
BRANCH   7  10
HETATM   10  C   UNL     1      -3.670   1.054   0.216  1.00  0.00     0.123 C 
BRANCH  10  11
HETATM   11  C   UNL     1      -5.202   0.941   0.279  1.00  0.00     0.019 C 
BRANCH  11  12
HETATM   12  C   UNL     1      -5.839   2.337   0.245  1.00  0.00    -0.003 C 
HETATM   13  C   UNL     1      -7.353   2.264   0.135  1.00  0.00     0.005 C 
ENDBRANCH  11  12
ENDBRANCH  10  11
ENDBRANCH   7  10
ENDBRANCH   3   7
BRANCH   1  14
HETATM   14  N   UNL     1      -1.260   2.410  -0.278  1.00  0.00    -0.113 N 
HETATM   15  O   UNL     1      -1.465   2.821  -1.427  1.00  0.00    -0.532 OA
HETATM   16  O   UNL     1      -1.397   3.068   0.763  1.00  0.00    -0.532 OA
ENDBRANCH   1  14
BRANCH   2  17
HETATM   17  N   UNL     1      -1.037  -2.384   1.130  1.00  0.00    -0.113 N 
HETATM   18  O   UNL     1      -0.622  -3.474   0.697  1.00  0.00    -0.532 OA
HETATM   19  O   UNL     1      -1.720  -2.236   2.148  1.00  0.00    -0.532 OA
ENDBRANCH   2  17
BRANCH   4  20
HETATM   20  C   UNL     1       3.017   0.113  -0.105  1.00  0.00     0.417 C 
HETATM   21  F   UNL     1       3.450   0.811  -1.189  1.00  0.00    -0.166 F 
HETATM   22  F   UNL     1       3.530   0.749   0.982  1.00  0.00    -0.166 F 
HETATM   23  F   UNL     1       3.631  -1.098  -0.163  1.00  0.00    -0.166 F 
ENDBRANCH   4  20
TORSDOF 8
