REMARK  4 active torsions:
REMARK  status: ('A' for Active; 'I' for Inactive)
REMARK    1  A    between atoms: C_1  and  O_3 
REMARK       I    between atoms: C_1  and  N_4 
REMARK    2  A    between atoms: N_4  and  S_5 
REMARK    3  A    between atoms: S_5  and  C_8 
REMARK    4  A    between atoms: C_13  and  N_14 
ROOT
HETATM    1  C   UNL     1       4.951   1.088  -0.328  1.00  0.00     0.080 A 
HETATM    2  C   UNL     1       5.849   2.162  -0.296  1.00  0.00     0.027 A 
HETATM    3  C   UNL     1       5.429  -0.221  -0.367  1.00  0.00     0.027 A 
HETATM    4  C   UNL     1       7.224   1.926  -0.337  1.00  0.00     0.025 A 
HETATM    5  C   UNL     1       6.814  -0.443  -0.393  1.00  0.00     0.025 A 
HETATM    6  C   UNL     1       7.718   0.625  -0.445  1.00  0.00     0.005 A 
ENDROOT
BRANCH   1   7
HETATM    7  S   UNL     1       3.219   1.506  -0.347  1.00  0.00     0.267 S 
HETATM    8  O   UNL     1       2.938   1.897  -1.711  1.00  0.00    -0.200 OA
HETATM    9  O   UNL     1       3.020   2.395   0.776  1.00  0.00    -0.200 OA
BRANCH   7  10
HETATM   10  N   UNL     1       2.392   0.111  -0.019  1.00  0.00    -0.226 N 
HETATM   11  C   UNL     1       1.003   0.079  -0.046  1.00  0.00     0.373 C 
HETATM   12  O   UNL     1       0.292   1.030  -0.325  1.00  0.00    -0.237 OA
HETATM   13  H   UNL     1       2.867  -0.702   0.340  1.00  0.00     0.184 HD
BRANCH  11  14
HETATM   14  O   UNL     1       0.539  -1.156   0.279  1.00  0.00    -0.308 OA
HETATM   15  C   UNL     1      -0.888  -1.249   0.249  1.00  0.00     0.215 C 
ENDBRANCH  11  14
ENDBRANCH   7  10
ENDBRANCH   1   7
BRANCH   6  16
HETATM   16  N   UNL     1       9.095   0.390  -0.380  1.00  0.00    -0.303 NA
HETATM   17  H   UNL     1       9.656   1.161  -0.731  1.00  0.00     0.124 HD
HETATM   18  H   UNL     1       9.383  -0.498  -0.780  1.00  0.00     0.124 HD
ENDBRANCH   6  16
TORSDOF 4
