REMARK  0 active torsions:
REMARK  status: ('A' for Active; 'I' for Inactive)
ROOT
HETATM    1  C   UNL     1      -1.036   1.255   0.073  1.00  0.00    -0.014 A 
HETATM    2  C   UNL     1       0.322   1.659   0.156  1.00  0.00     0.025 A 
HETATM    3  C   UNL     1      -1.276  -0.125  -0.129  1.00  0.00    -0.024 A 
HETATM    4  C   UNL     1      -2.154   2.156   0.181  1.00  0.00    -0.015 A 
HETATM    5  C   UNL     1      -0.208  -1.039  -0.167  1.00  0.00     0.024 A 
HETATM    6  C   UNL     1       1.395   0.752   0.095  1.00  0.00    -0.025 A 
HETATM    7  C   UNL     1       1.125  -0.621  -0.043  1.00  0.00    -0.025 A 
HETATM    8  C   UNL     1      -2.586  -0.587  -0.288  1.00  0.00     0.013 A 
HETATM    9  C   UNL     1      -3.469   1.652   0.010  1.00  0.00    -0.025 A 
HETATM   10  C   UNL     1      -3.665   0.291  -0.237  1.00  0.00     0.013 A 
HETATM   11  C   UNL     1      -2.038   3.539   0.471  1.00  0.00     0.013 A 
HETATM   12  C   UNL     1       2.729   1.185   0.176  1.00  0.00     0.012 A 
HETATM   13  C   UNL     1       2.192  -1.535  -0.058  1.00  0.00     0.012 A 
HETATM   14  C   UNL     1      -4.580   2.507   0.100  1.00  0.00     0.012 A 
HETATM   15  C   UNL     1      -3.152   4.376   0.579  1.00  0.00     0.001 A 
HETATM   16  C   UNL     1       3.781   0.268   0.148  1.00  0.00     0.001 A 
HETATM   17  C   UNL     1       3.512  -1.092   0.042  1.00  0.00     0.001 A 
HETATM   18  C   UNL     1      -4.425   3.861   0.386  1.00  0.00     0.001 A 
ENDROOT
TORSDOF 0
