REMARK  1 active torsions:
REMARK  status: ('A' for Active; 'I' for Inactive)
REMARK    1  A    between atoms: N_2  and  C_10 
ROOT
HETATM    1  S   UNL     1      -2.470   0.921  -0.315  1.00  0.00     0.310 S 
HETATM    2  N   UNL     1      -2.360  -0.532   0.500  1.00  0.00    -0.224 N 
HETATM    3  C   UNL     1      -1.221  -1.341   0.222  1.00  0.00     0.270 C 
HETATM    4  N   UNL     1      -1.015   1.575   0.204  1.00  0.00    -0.167 NA
HETATM    5  C   UNL     1       0.063  -0.636  -0.022  1.00  0.00     0.055 A 
HETATM    6  C   UNL     1       0.133   0.761  -0.024  1.00  0.00     0.040 A 
HETATM    7  O   UNL     1      -2.338   0.673  -1.732  1.00  0.00    -0.188 OA
HETATM    8  O   UNL     1      -3.484   1.805   0.200  1.00  0.00    -0.188 OA
HETATM    9  O   UNL     1      -1.248  -2.561   0.325  1.00  0.00    -0.266 OA
HETATM   10  C   UNL     1       1.238  -1.392  -0.146  1.00  0.00     0.019 A 
HETATM   11  C   UNL     1       1.380   1.392  -0.058  1.00  0.00     0.025 A 
HETATM   12  C   UNL     1       2.476  -0.755  -0.224  1.00  0.00     0.001 A 
HETATM   13  C   UNL     1       2.548   0.636  -0.166  1.00  0.00     0.002 A 
HETATM   14  H   UNL     1      -0.943   2.543  -0.110  1.00  0.00     0.147 HD
ENDROOT
BRANCH   2  15
HETATM   15  C   UNL     1      -3.432  -1.072   1.390  1.00  0.00     0.098 C 
HETATM   16  C   UNL     1      -2.834  -1.245   2.793  1.00  0.00     0.033 C 
HETATM   17  C   UNL     1      -4.722  -0.272   1.498  1.00  0.00     0.033 C 
ENDBRANCH   2  15
TORSDOF 1
