REMARK  0 active torsions:
REMARK  status: ('A' for Active; 'I' for Inactive)
ROOT
HETATM    1  C   UNL     1       0.413  -1.136   0.016  1.00  0.00    -0.003 A 
HETATM    2  C   UNL     1      -0.037   0.173  -0.011  1.00  0.00    -0.012 A 
HETATM    3  C   UNL     1      -0.667  -2.008  -0.077  1.00  0.00    -0.013 A 
HETATM    4  C   UNL     1       1.753  -1.519   0.114  1.00  0.00    -0.013 A 
HETATM    5  C   UNL     1      -1.491   0.152  -0.106  1.00  0.00    -0.014 A 
HETATM    6  C   UNL     1      -1.884  -1.212  -0.162  1.00  0.00    -0.014 A 
HETATM    7  C   UNL     1       0.878   1.206   0.032  1.00  0.00     0.025 A 
HETATM    8  C   UNL     1       2.711  -0.452   0.165  1.00  0.00    -0.015 A 
HETATM    9  C   UNL     1       2.256   0.906   0.107  1.00  0.00    -0.024 A 
HETATM   10  C   UNL     1      -0.446  -3.372  -0.072  1.00  0.00     0.013 A 
HETATM   11  C   UNL     1       1.955  -2.924   0.136  1.00  0.00     0.013 A 
HETATM   12  C   UNL     1      -2.430   1.167  -0.135  1.00  0.00     0.013 A 
HETATM   13  C   UNL     1      -3.214  -1.571  -0.271  1.00  0.00     0.013 A 
HETATM   14  C   UNL     1       4.102  -0.676   0.253  1.00  0.00     0.013 A 
HETATM   15  C   UNL     1       0.874  -3.828   0.041  1.00  0.00     0.002 A 
HETATM   16  C   UNL     1       3.192   1.951   0.116  1.00  0.00     0.012 A 
HETATM   17  C   UNL     1      -4.165  -0.546  -0.306  1.00  0.00     0.001 A 
HETATM   18  C   UNL     1      -3.778   0.806  -0.233  1.00  0.00     0.001 A 
HETATM   19  C   UNL     1       5.014   0.381   0.261  1.00  0.00     0.001 A 
HETATM   20  C   UNL     1       4.561   1.692   0.185  1.00  0.00     0.001 A 
ENDROOT
TORSDOF 0
