REMARK  5 active torsions:
REMARK  status: ('A' for Active; 'I' for Inactive)
REMARK    1  A    between atoms: C_1  and  C_3 
REMARK    2  A    between atoms: P_2  and  O_5 
REMARK    3  A    between atoms: P_2  and  O_9 
REMARK    4  A    between atoms: P_2  and  O_10 
REMARK       I    between atoms: C_3  and  N_6 
REMARK    5  A    between atoms: C_4  and  O_5 
ROOT
HETATM    1  C   UNL     1       1.005   1.079   0.306  1.00  0.00     0.106 C 
HETATM    2  C   UNL     1       1.986   0.208   0.015  1.00  0.00     0.060 C 
HETATM    3  C   UNL     1       2.813  -0.572   0.993  1.00  0.00     0.077 C 
ENDROOT
BRANCH   2   4
HETATM    4  O   UNL     1       2.156  -0.103  -1.331  1.00  0.00    -0.255 OA
BRANCH   4   5
HETATM    5  P   UNL     1       2.233  -1.597  -1.955  1.00  0.00     0.481 P 
HETATM    6  O   UNL     1       3.619  -2.138  -2.127  1.00  0.00    -0.227 OA
BRANCH   5   7
HETATM    7  O   UNL     1       1.277  -2.514  -1.031  1.00  0.00    -0.297 OA
HETATM    8  C   UNL     1      -0.055  -2.123  -0.766  1.00  0.00     0.215 C 
ENDBRANCH   5   7
BRANCH   5   9
HETATM    9  O   UNL     1       1.396  -1.460  -3.329  1.00  0.00    -0.297 OA
HETATM   10  C   UNL     1       1.108  -2.654  -4.028  1.00  0.00     0.215 C 
ENDBRANCH   5   9
ENDBRANCH   4   5
ENDBRANCH   2   4
BRANCH   1  11
HETATM   11  C   UNL     1       0.394   1.247   1.637  1.00  0.00     0.245 C 
HETATM   12  N   UNL     1       1.121   1.765   2.679  1.00  0.00    -0.357 N 
HETATM   13  C   UNL     1       0.518   1.786   4.001  1.00  0.00     0.152 C 
HETATM   14  C   UNL     1       2.455   2.340   2.577  1.00  0.00     0.152 C 
HETATM   15  O   UNL     1      -0.798   0.906   1.735  1.00  0.00    -0.268 OA
ENDBRANCH   1  11
TORSDOF 5
