REMARK  2 active torsions:
REMARK  status: ('A' for Active; 'I' for Inactive)
REMARK    1  A    between atoms: C_6  and  O_14 
REMARK    2  A    between atoms: C_8  and  O_14 
ROOT
HETATM    1 BR   UNL     1       0.938   0.386   0.189  1.00  0.00    -0.051 Br
HETATM    2  C   UNL     1       5.569  -0.211  -0.090  1.00  0.00     0.076 A 
HETATM    3  C   UNL     1       4.796  -1.105   0.653  1.00  0.00     0.038 A 
HETATM    4  C   UNL     1       4.964   0.887  -0.707  1.00  0.00     0.038 A 
HETATM    5  C   UNL     1       3.409  -0.941   0.717  1.00  0.00     0.022 A 
HETATM    6  C   UNL     1       3.582   1.067  -0.627  1.00  0.00     0.022 A 
HETATM    7  C   UNL     1       2.810   0.145   0.077  1.00  0.00     0.011 A 
ENDROOT
BRANCH   2   8
HETATM    8  O   UNL     1       6.939  -0.249  -0.129  1.00  0.00    -0.311 OA
BRANCH   8   9
HETATM    9  C   UNL     1       7.616  -1.358  -0.583  1.00  0.00     0.076 A 
HETATM   10  C   UNL     1       7.064  -2.557  -1.034  1.00  0.00     0.037 A 
HETATM   11  C   UNL     1       7.898  -3.604  -1.444  1.00  0.00     0.003 A 
HETATM   12  C   UNL     1       9.284  -3.445  -1.439  1.00  0.00     0.000 A 
HETATM   13  C   UNL     1       9.840  -2.239  -1.023  1.00  0.00     0.003 A 
HETATM   14  C   UNL     1       9.008  -1.204  -0.593  1.00  0.00     0.037 A 
ENDBRANCH   8   9
ENDBRANCH   2   8
TORSDOF 2
