REMARK  6 active torsions:
REMARK  status: ('A' for Active; 'I' for Inactive)
REMARK       I    between atoms: C_1  and  N_2 
REMARK    1  A    between atoms: C_1  and  S_6 
REMARK    2  A    between atoms: N_2  and  C_4 
REMARK    3  A    between atoms: N_2  and  C_5 
REMARK    4  A    between atoms: C_4  and  C_8 
REMARK    5  A    between atoms: C_5  and  C_7 
REMARK    6  A    between atoms: S_6  and  C_9 
ROOT
HETATM    1  C   UNL     1       1.283   0.513  -0.461  1.00  0.00     0.281 C 
HETATM    2  N   UNL     1       0.179   1.350  -0.712  1.00  0.00    -0.342 N 
HETATM    3  O   UNL     1       1.260  -0.705  -0.561  1.00  0.00    -0.260 OA
ENDROOT
BRANCH   2   4
HETATM    4  C   UNL     1      -1.077   0.648  -1.011  1.00  0.00     0.130 C 
BRANCH   4   5
HETATM    5  C   UNL     1      -1.637  -0.223   0.138  1.00  0.00    -0.005 C 
HETATM    6  C   UNL     1      -1.876   0.582   1.418  1.00  0.00     0.011 C 
HETATM    7  C   UNL     1      -2.943  -0.886  -0.313  1.00  0.00     0.011 C 
ENDBRANCH   4   5
ENDBRANCH   2   4
BRANCH   2   8
HETATM    8  C   UNL     1       0.382   2.644  -1.391  1.00  0.00     0.130 C 
BRANCH   8   9
HETATM    9  C   UNL     1      -0.612   3.771  -1.024  1.00  0.00    -0.005 C 
HETATM   10  C   UNL     1      -0.569   4.124   0.469  1.00  0.00     0.011 C 
HETATM   11  C   UNL     1      -0.284   5.016  -1.863  1.00  0.00     0.011 C 
ENDBRANCH   8   9
ENDBRANCH   2   8
BRANCH   1  12
HETATM   12  S   UNL     1       2.748   1.303   0.110  1.00  0.00    -0.070 SA
BRANCH  12  13
HETATM   13  C   UNL     1       3.966   0.284  -0.777  1.00  0.00     0.079 C 
HETATM   14  C   UNL     1       5.360   0.827  -0.505  1.00  0.00     0.016 C 
ENDBRANCH  12  13
ENDBRANCH   1  12
TORSDOF 6
