REMARK  10 active torsions:
REMARK  status: ('A' for Active; 'I' for Inactive)
REMARK    1  A    between atoms: C_1  and  O_3 
REMARK       I    between atoms: C_1  and  N_4 
REMARK    2  A    between atoms: O_3  and  C_21 
REMARK    3  A    between atoms: N_4  and  S_5 
REMARK    4  A    between atoms: S_5  and  N_6 
REMARK    5  A    between atoms: N_6  and  C_7 
REMARK    6  A    between atoms: N_6  and  C_11 
REMARK    7  A    between atoms: C_7  and  C_8 
REMARK    8  A    between atoms: C_8  and  C_9 
REMARK    9  A    between atoms: C_11  and  C_12 
REMARK   10  A    between atoms: C_12  and  C_13 
ROOT
HETATM    1  C   UNL     1       0.930  -0.101   0.967  1.00  0.00     0.379 C 
HETATM    2  O   UNL     1       0.558  -1.102   1.574  1.00  0.00    -0.237 OA
HETATM    3  N   UNL     1       2.166   0.045   0.346  1.00  0.00    -0.254 N 
HETATM    4  C   UNL     1       2.724   1.330  -0.043  1.00  0.00     0.172 C 
ENDROOT
BRANCH   1   5
HETATM    5  O   UNL     1       0.112   1.017   0.748  1.00  0.00    -0.258 OA
BRANCH   5   6
HETATM    6  C   UNL     1      -1.300   0.983   0.763  1.00  0.00     0.114 A 
HETATM    7  C   UNL     1      -1.966   2.193   0.650  1.00  0.00     0.110 A 
HETATM    8  O   UNL     1      -1.363   3.422   0.573  1.00  0.00    -0.337 OA
HETATM    9  C   UNL     1      -3.347   2.247   0.563  1.00  0.00    -0.019 A 
HETATM   10  C   UNL     1      -2.450   4.392   0.519  1.00  0.00     0.065 A 
HETATM   11  C   UNL     1      -3.798   3.646   0.402  1.00  0.00     0.079 A 
HETATM   12  C   UNL     1      -2.212   5.287  -0.700  1.00  0.00     0.046 C 
HETATM   13  C   UNL     1      -2.390   5.230   1.801  1.00  0.00     0.046 C 
HETATM   14  C   UNL     1      -4.113   1.093   0.582  1.00  0.00     0.010 A 
HETATM   15  C   UNL     1      -3.457  -0.133   0.686  1.00  0.00     0.003 A 
HETATM   16  C   UNL     1      -2.056  -0.192   0.767  1.00  0.00     0.040 A 
ENDBRANCH   5   6
ENDBRANCH   1   5
BRANCH   3  17
HETATM   17  S   UNL     1       3.134  -1.317   0.015  1.00  0.00     0.071 SA
BRANCH  17  18
HETATM   18  N   UNL     1       2.306  -2.321  -1.062  1.00  0.00    -0.339 N 
BRANCH  18  19
HETATM   19  C   UNL     1       1.796  -1.799  -2.357  1.00  0.00     0.132 C 
BRANCH  19  20
HETATM   20  C   UNL     1       0.620  -0.821  -2.222  1.00  0.00     0.020 C 
BRANCH  20  21
HETATM   21  C   UNL     1      -0.109  -0.584  -3.545  1.00  0.00    -0.003 C 
HETATM   22  C   UNL     1      -1.159   0.509  -3.397  1.00  0.00     0.005 C 
ENDBRANCH  20  21
ENDBRANCH  19  20
ENDBRANCH  18  19
BRANCH  18  23
HETATM   23  C   UNL     1       2.945  -3.647  -1.287  1.00  0.00     0.132 C 
BRANCH  23  24
HETATM   24  C   UNL     1       1.964  -4.803  -1.550  1.00  0.00     0.020 C 
BRANCH  24  25
HETATM   25  C   UNL     1       2.732  -6.109  -1.786  1.00  0.00    -0.003 C 
HETATM   26  C   UNL     1       1.804  -7.266  -2.116  1.00  0.00     0.005 C 
ENDBRANCH  24  25
ENDBRANCH  23  24
ENDBRANCH  18  23
ENDBRANCH  17  18
ENDBRANCH   3  17
TORSDOF 10
