REMARK  0 active torsions:
REMARK  status: ('A' for Active; 'I' for Inactive)
ROOT
HETATM    1  C   UNL     1      -1.412  -0.099  -0.090  1.00  0.00    -0.040 A 
HETATM    2  C   UNL     1      -0.766   1.147  -0.049  1.00  0.00     0.008 A 
HETATM    3  C   UNL     1      -0.626  -1.262  -0.069  1.00  0.00     0.040 A 
HETATM    4  C   UNL     1       0.627   1.228   0.015  1.00  0.00     0.001 A 
HETATM    5  C   UNL     1       0.768  -1.179  -0.005  1.00  0.00     0.024 A 
HETATM    6  C   UNL     1       1.394   0.067   0.037  1.00  0.00     0.002 A 
HETATM    7  C   UNL     1      -2.912  -0.153  -0.162  1.00  0.00     0.050 C 
HETATM    8 CL   UNL     1      -1.339  -2.835  -0.122  1.00  0.00    -0.084 Cl
ENDROOT
TORSDOF 0
