REMARK  4 active torsions:
REMARK  status: ('A' for Active; 'I' for Inactive)
REMARK    1  A    between atoms: S_1  and  N_3 
REMARK    2  A    between atoms: S_1  and  C_6 
REMARK    3  A    between atoms: C_2  and  N_10 
REMARK       I    between atoms: N_3  and  C_8 
REMARK       I    between atoms: C_8  and  N_10 
REMARK    4  A    between atoms: C_9  and  O_16 
ROOT
HETATM    1  N   UNL     1       0.362  -0.726  -0.804  1.00  0.00    -0.236 N 
HETATM    2  C   UNL     1       0.749  -0.648  -2.143  1.00  0.00     0.314 C 
HETATM    3  N   UNL     1       1.764   0.090  -2.680  1.00  0.00    -0.177 NA
HETATM    4  O   UNL     1       0.057  -1.290  -2.932  1.00  0.00    -0.253 OA
HETATM    5  H   UNL     1      -0.443  -1.331  -0.671  1.00  0.00     0.183 HD
HETATM    6  H   UNL     1       1.507   0.294  -3.635  1.00  0.00     0.141 HD
ENDROOT
BRANCH   1   7
HETATM    7  S   UNL     1       1.137  -0.251   0.570  1.00  0.00     0.267 S 
HETATM    8  O   UNL     1       1.219   1.190   0.588  1.00  0.00    -0.200 OA
HETATM    9  O   UNL     1       2.323  -1.070   0.704  1.00  0.00    -0.200 OA
BRANCH   7  10
HETATM   10  C   UNL     1       0.056  -0.763   1.885  1.00  0.00     0.101 A 
HETATM   11  C   UNL     1      -0.728   0.130   2.622  1.00  0.00     0.057 A 
HETATM   12 CL   UNL     1      -1.100   1.749   2.157  1.00  0.00    -0.083 Cl
HETATM   13  C   UNL     1      -1.312  -0.304   3.820  1.00  0.00     0.025 A 
HETATM   14  C   UNL     1      -1.146  -1.616   4.263  1.00  0.00     0.002 A 
HETATM   15  C   UNL     1      -0.416  -2.519   3.498  1.00  0.00     0.002 A 
HETATM   16  C   UNL     1       0.190  -2.096   2.317  1.00  0.00     0.027 A 
ENDBRANCH   7  10
ENDBRANCH   1   7
BRANCH   3  17
HETATM   17  C   UNL     1       2.373   1.178  -2.079  1.00  0.00     0.215 A 
HETATM   18  N   UNL     1       3.380   0.960  -1.245  1.00  0.00    -0.175 NA
HETATM   19  C   UNL     1       3.902   2.068  -0.725  1.00  0.00     0.272 A 
HETATM   20  N   UNL     1       3.535   3.312  -1.010  1.00  0.00    -0.192 NA
HETATM   21  C   UNL     1       2.537   3.406  -1.884  1.00  0.00     0.130 A 
HETATM   22  N   UNL     1       1.954   2.369  -2.489  1.00  0.00    -0.203 NA
HETATM   23  C   UNL     1       1.963   4.766  -2.132  1.00  0.00     0.093 C 
BRANCH  19  24
HETATM   24  O   UNL     1       4.969   1.968   0.143  1.00  0.00    -0.324 OA
HETATM   25  C   UNL     1       4.826   0.860   1.023  1.00  0.00     0.213 C 
ENDBRANCH  19  24
ENDBRANCH   3  17
TORSDOF 4
