REMARK  7 active torsions:
REMARK  status: ('A' for Active; 'I' for Inactive)
REMARK    1  A    between atoms: C_2  and  C_5 
REMARK    2  A    between atoms: C_3  and  C_4 
REMARK    3  A    between atoms: C_4  and  O_6 
REMARK    4  A    between atoms: O_6  and  C_10 
REMARK    5  A    between atoms: C_10  and  C_11 
REMARK    6  A    between atoms: C_14  and  O_15 
REMARK    7  A    between atoms: O_15  and  C_20 
ROOT
HETATM    1  N   UNL     1       1.627  -2.944  -0.407  1.00  0.00    -0.099 N 
HETATM    2  C   UNL     1       1.182  -2.185  -1.311  1.00  0.00     0.017 C 
HETATM    3  C   UNL     1       0.645  -1.270  -2.400  1.00  0.00     0.257 C 
ENDROOT
BRANCH   3   4
HETATM    4  O   UNL     1      -0.764  -1.066  -2.253  1.00  0.00    -0.297 OA
BRANCH   4   5
HETATM    5  C   UNL     1      -1.340  -0.475  -1.168  1.00  0.00     0.266 C 
HETATM    6  O   UNL     1      -2.557  -0.334  -1.126  1.00  0.00    -0.265 OA
BRANCH   5   7
HETATM    7  C   UNL     1      -0.546  -0.031   0.023  1.00  0.00     0.102 A 
HETATM    8  C   UNL     1      -0.150   1.444   0.137  1.00  0.00    -0.027 A 
HETATM    9  C   UNL     1       0.912   0.377   0.178  1.00  0.00     0.034 A 
HETATM   10  C   UNL     1      -0.448   2.217   1.394  1.00  0.00     0.016 C 
HETATM   11  C   UNL     1      -0.191   2.301  -1.113  1.00  0.00     0.016 C 
BRANCH   9  12
HETATM   12  C   UNL     1       1.579  -0.082   1.420  1.00  0.00     0.016 C 
HETATM   13  C   UNL     1       2.887  -0.319   1.623  1.00  0.00     0.100 C 
HETATM   14 CL   UNL     1       4.085  -0.049   0.409  1.00  0.00    -0.071 Cl
HETATM   15 CL   UNL     1       3.431  -0.943   3.142  1.00  0.00    -0.071 Cl
ENDBRANCH   9  12
ENDBRANCH   5   7
ENDBRANCH   4   5
ENDBRANCH   3   4
BRANCH   3  16
HETATM   16  C   UNL     1       0.956  -1.735  -3.813  1.00  0.00    -0.014 A 
HETATM   17  C   UNL     1       1.268  -0.760  -4.785  1.00  0.00     0.048 A 
HETATM   18  C   UNL     1       1.612  -1.121  -6.090  1.00  0.00     0.076 A 
HETATM   19  C   UNL     1       1.633  -2.472  -6.437  1.00  0.00     0.037 A 
HETATM   20  C   UNL     1       1.303  -3.448  -5.495  1.00  0.00     0.003 A 
HETATM   21  C   UNL     1       0.957  -3.084  -4.192  1.00  0.00     0.011 A 
BRANCH  18  22
HETATM   22  O   UNL     1       1.957  -0.245  -7.099  1.00  0.00    -0.311 OA
BRANCH  22  23
HETATM   23  C   UNL     1       1.946   1.099  -6.819  1.00  0.00     0.076 A 
HETATM   24  C   UNL     1       0.767   1.830  -6.965  1.00  0.00     0.037 A 
HETATM   25  C   UNL     1       0.771   3.201  -6.710  1.00  0.00     0.003 A 
HETATM   26  C   UNL     1       1.955   3.837  -6.329  1.00  0.00     0.000 A 
HETATM   27  C   UNL     1       3.138   3.104  -6.209  1.00  0.00     0.003 A 
HETATM   28  C   UNL     1       3.137   1.732  -6.462  1.00  0.00     0.037 A 
ENDBRANCH  22  23
ENDBRANCH  18  22
ENDBRANCH   3  16
TORSDOF 7
