REMARK  4 active torsions:
REMARK  status: ('A' for Active; 'I' for Inactive)
REMARK    1  A    between atoms: C_1  and  N_7 
REMARK    2  A    between atoms: C_5  and  N_11 
REMARK    3  A    between atoms: C_6  and  N_12 
REMARK    4  A    between atoms: N_7  and  C_8 
ROOT
HETATM    1  C   UNL     1      -0.646   1.068  -0.142  1.00  0.00     0.728 A 
HETATM    2  N   UNL     1      -1.333  -0.065  -0.056  1.00  0.00    -0.032 NA
HETATM    3  N   UNL     1       0.674   1.148  -0.027  1.00  0.00    -0.032 NA
HETATM    4  N   UNL     1       0.704  -1.183   0.253  1.00  0.00    -0.187 NA
HETATM    5  C   UNL     1       1.292  -0.003   0.178  1.00  0.00     0.220 A 
HETATM    6  C   UNL     1      -0.614  -1.151   0.156  1.00  0.00     0.220 A 
ENDROOT
BRANCH   1   7
HETATM    7  N   UNL     1      -1.308   2.274  -0.401  1.00  0.00    -0.218 N 
HETATM    8  H   UNL     1      -0.680   3.030  -0.150  1.00  0.00     0.178 HD
BRANCH   7   9
HETATM    9  C   UNL     1      -2.737   2.398  -0.154  1.00  0.00     0.099 A 
HETATM   10  C   UNL     1      -3.749   1.843  -1.117  1.00  0.00     0.028 A 
HETATM   11  C   UNL     1      -3.563   3.327  -1.001  1.00  0.00     0.028 A 
ENDBRANCH   7   9
ENDBRANCH   1   7
BRANCH   6  12
HETATM   12  N   UNL     1      -1.290  -2.353   0.227  1.00  0.00    -0.270 NA
HETATM   13  H   UNL     1      -2.180  -2.276  -0.248  1.00  0.00     0.127 HD
HETATM   14  H   UNL     1      -0.684  -3.114  -0.043  1.00  0.00     0.127 HD
ENDBRANCH   6  12
BRANCH   5  15
HETATM   15  N   UNL     1       2.671   0.026   0.265  1.00  0.00    -0.270 NA
HETATM   16  H   UNL     1       3.035   0.840  -0.210  1.00  0.00     0.127 HD
HETATM   17  H   UNL     1       3.055  -0.872   0.006  1.00  0.00     0.127 HD
ENDBRANCH   5  15
TORSDOF 4
