REMARK  4 active torsions:
REMARK  status: ('A' for Active; 'I' for Inactive)
REMARK    1  A    between atoms: C_1  and  N_8 
REMARK    2  A    between atoms: C_5  and  N_11 
REMARK    3  A    between atoms: N_8  and  C_10 
REMARK    4  A    between atoms: N_11  and  C_15 
ROOT
HETATM    1  N   UNL     1      -3.730   1.223  -2.137  1.00  0.00    -0.195 NA
HETATM    2  C   UNL     1      -3.337   1.723  -1.163  1.00  0.00     0.084 C 
HETATM    3  C   UNL     1      -2.845   2.388   0.076  1.00  0.00     0.100 C 
HETATM    4  C   UNL     1      -3.577   1.830   1.309  1.00  0.00     0.048 C 
HETATM    5  C   UNL     1      -3.187   3.890  -0.027  1.00  0.00     0.048 C 
ENDROOT
BRANCH   3   6
HETATM    6  N   UNL     1      -1.389   2.302   0.263  1.00  0.00    -0.239 NA
HETATM    7  H   UNL     1      -0.832   2.991  -0.231  1.00  0.00     0.132 HD
BRANCH   6   8
HETATM    8  C   UNL     1      -0.732   1.091   0.155  1.00  0.00     0.208 A 
HETATM    9  N   UNL     1      -1.388  -0.051   0.292  1.00  0.00    -0.187 NA
HETATM   10  C   UNL     1      -0.689  -1.175   0.160  1.00  0.00     0.207 A 
HETATM   11  N   UNL     1       0.607  -1.210  -0.076  1.00  0.00    -0.187 NA
HETATM   12  C   UNL     1       1.156  -0.010  -0.166  1.00  0.00     0.228 A 
HETATM   13  N   UNL     1       0.561   1.171  -0.086  1.00  0.00    -0.187 NA
HETATM   14 CL   UNL     1       2.847   0.023  -0.417  1.00  0.00    -0.041 Cl
BRANCH  10  15
HETATM   15  N   UNL     1      -1.317  -2.406   0.271  1.00  0.00    -0.261 NA
HETATM   16  H   UNL     1      -0.743  -3.089  -0.211  1.00  0.00     0.130 HD
BRANCH  15  17
HETATM   17  C   UNL     1      -2.737  -2.429  -0.029  1.00  0.00     0.091 C 
HETATM   18  C   UNL     1      -3.236  -3.865  -0.001  1.00  0.00     0.021 C 
ENDBRANCH  15  17
ENDBRANCH  10  15
ENDBRANCH   6   8
ENDBRANCH   3   6
TORSDOF 4
