REMARK  6 active torsions:
REMARK  status: ('A' for Active; 'I' for Inactive)
REMARK    1  A    between atoms: C_3  and  C_4 
REMARK    2  A    between atoms: C_4  and  O_5 
REMARK    3  A    between atoms: O_5  and  C_8 
REMARK    4  A    between atoms: C_8  and  C_9 
REMARK    5  A    between atoms: C_12  and  O_13 
REMARK    6  A    between atoms: O_13  and  C_18 
ROOT
HETATM    1  N   UNL     1       1.627  -2.944  -0.407  1.00  0.00    -0.099 N 
HETATM    2  C   UNL     1       1.182  -2.185  -1.311  1.00  0.00     0.017 C 
HETATM    3  C   UNL     1       0.645  -1.270  -2.400  1.00  0.00     0.257 C 
ENDROOT
BRANCH   3   4
HETATM    4  O   UNL     1      -0.737  -1.002  -2.204  1.00  0.00    -0.297 OA
BRANCH   4   5
HETATM    5  C   UNL     1      -1.066   0.065  -1.424  1.00  0.00     0.266 C 
HETATM    6  O   UNL     1      -2.071   0.722  -1.668  1.00  0.00    -0.265 OA
BRANCH   5   7
HETATM    7  C   UNL     1      -0.371   0.253  -0.107  1.00  0.00     0.102 A 
HETATM    8  C   UNL     1      -0.047   1.700   0.285  1.00  0.00    -0.027 A 
HETATM    9  C   UNL     1       1.053   0.634   0.351  1.00  0.00    -0.027 A 
HETATM   10  C   UNL     1      -0.652   2.248   1.555  1.00  0.00     0.016 C 
HETATM   11  C   UNL     1       0.013   2.752  -0.813  1.00  0.00     0.016 C 
HETATM   12  C   UNL     1       2.281   0.874  -0.502  1.00  0.00     0.016 C 
HETATM   13  C   UNL     1       1.455   0.030   1.699  1.00  0.00     0.016 C 
ENDBRANCH   5   7
ENDBRANCH   4   5
ENDBRANCH   3   4
BRANCH   3  14
HETATM   14  C   UNL     1       0.908  -1.749  -3.816  1.00  0.00    -0.014 A 
HETATM   15  C   UNL     1       1.239  -0.785  -4.793  1.00  0.00     0.048 A 
HETATM   16  C   UNL     1       1.552  -1.158  -6.103  1.00  0.00     0.076 A 
HETATM   17  C   UNL     1       1.520  -2.509  -6.449  1.00  0.00     0.037 A 
HETATM   18  C   UNL     1       1.167  -3.472  -5.502  1.00  0.00     0.003 A 
HETATM   19  C   UNL     1       0.854  -3.097  -4.193  1.00  0.00     0.011 A 
BRANCH  16  20
HETATM   20  O   UNL     1       1.921  -0.293  -7.113  1.00  0.00    -0.311 OA
BRANCH  20  21
HETATM   21  C   UNL     1       1.922   1.052  -6.841  1.00  0.00     0.076 A 
HETATM   22  C   UNL     1       0.748   1.792  -6.984  1.00  0.00     0.037 A 
HETATM   23  C   UNL     1       0.761   3.162  -6.724  1.00  0.00     0.003 A 
HETATM   24  C   UNL     1       1.949   3.788  -6.340  1.00  0.00     0.000 A 
HETATM   25  C   UNL     1       3.127   3.047  -6.224  1.00  0.00     0.003 A 
HETATM   26  C   UNL     1       3.117   1.676  -6.483  1.00  0.00     0.037 A 
ENDBRANCH  20  21
ENDBRANCH  16  20
ENDBRANCH   3  14
TORSDOF 6
