REMARK  4 active torsions:
REMARK  status: ('A' for Active; 'I' for Inactive)
REMARK    1  A    between atoms: C_1  and  C_7 
REMARK    2  A    between atoms: C_2  and  C_8 
REMARK    3  A    between atoms: C_7  and  O_15 
REMARK    4  A    between atoms: C_8  and  O_16 
ROOT
HETATM    1  C   UNL     1      -0.729   1.268  -0.003  1.00  0.00     0.086 A 
HETATM    2  C   UNL     1       0.733  -1.257   0.004  1.00  0.00     0.086 A 
HETATM    3  C   UNL     1       1.405  -0.009   0.000  1.00  0.00     0.074 A 
HETATM    4  C   UNL     1      -1.403   0.021  -0.007  1.00  0.00     0.074 A 
HETATM    5  C   UNL     1      -0.684  -1.221   0.004  1.00  0.00     0.074 A 
HETATM    6  C   UNL     1       0.689   1.229   0.004  1.00  0.00     0.074 A 
HETATM    7 CL   UNL     1      -3.156  -0.087  -0.041  1.00  0.00    -0.081 Cl
HETATM    8 CL   UNL     1      -1.652  -2.687   0.023  1.00  0.00    -0.081 Cl
HETATM    9 CL   UNL     1       3.158   0.087  -0.018  1.00  0.00    -0.081 Cl
HETATM   10 CL   UNL     1       1.645   2.701   0.026  1.00  0.00    -0.081 Cl
ENDROOT
BRANCH   1  11
HETATM   11  C   UNL     1      -1.430   2.619  -0.015  1.00  0.00     0.296 C 
HETATM   12  O   UNL     1      -0.868   3.698  -0.085  1.00  0.00    -0.259 OA
BRANCH  11  13
HETATM   13  O   UNL     1      -2.775   2.528   0.064  1.00  0.00    -0.322 OA
HETATM   14  C   UNL     1      -3.479   3.773   0.026  1.00  0.00     0.213 C 
ENDBRANCH  11  13
ENDBRANCH   1  11
BRANCH   2  15
HETATM   15  C   UNL     1       1.555  -2.538   0.017  1.00  0.00     0.296 C 
HETATM   16  O   UNL     1       2.772  -2.588   0.064  1.00  0.00    -0.259 OA
BRANCH  15  17
HETATM   17  O   UNL     1       0.805  -3.660  -0.030  1.00  0.00    -0.322 OA
HETATM   18  C   UNL     1       1.535  -4.891  -0.001  1.00  0.00     0.213 C 
ENDBRANCH  15  17
ENDBRANCH   2  15
TORSDOF 4
