REMARK  3 active torsions:
REMARK  status: ('A' for Active; 'I' for Inactive)
REMARK    1  A    between atoms: C_1  and  C_3 
REMARK    2  A    between atoms: C_2  and  O_10 
REMARK    3  A    between atoms: C_3  and  O_9 
ROOT
HETATM    1  C   UNL     1       1.226  -0.908   0.317  1.00  0.00     0.094 A 
HETATM    2  C   UNL     1       1.347   0.499   0.199  1.00  0.00     0.108 A 
HETATM    3  C   UNL     1      -0.056  -1.482   0.171  1.00  0.00     0.053 A 
HETATM    4  C   UNL     1       0.199   1.286  -0.024  1.00  0.00     0.068 A 
HETATM    5  C   UNL     1      -1.182  -0.682  -0.065  1.00  0.00     0.027 A 
HETATM    6  C   UNL     1      -1.057   0.699  -0.155  1.00  0.00     0.028 A 
HETATM    7 CL   UNL     1      -0.378  -3.179   0.307  1.00  0.00    -0.083 Cl
HETATM    8 CL   UNL     1       0.289   3.010  -0.135  1.00  0.00    -0.081 Cl
ENDROOT
BRANCH   1   9
HETATM    9  C   UNL     1       2.426  -1.724   0.680  1.00  0.00     0.180 C 
HETATM   10  O   UNL     1       3.373  -1.280   1.312  1.00  0.00    -0.646 OA
BRANCH   9  11
HETATM   11  O   UNL     1       2.458  -2.984   0.200  1.00  0.00    -0.772 OA
HETATM   12  H   UNL     1       1.616  -3.332  -0.153  1.00  0.00     0.167 HD
ENDBRANCH   9  11
ENDBRANCH   1   9
BRANCH   2  13
HETATM   13  O   UNL     1       2.509   1.191   0.432  1.00  0.00    -0.353 OA
HETATM   14  C   UNL     1       3.564   0.955  -0.499  1.00  0.00     0.210 C 
ENDBRANCH   2  13
TORSDOF 3
