REMARK  6 active torsions:
REMARK  status: ('A' for Active; 'I' for Inactive)
REMARK    1  A    between atoms: C_3  and  C_13 
REMARK    2  A    between atoms: C_3  and  O_5 
REMARK    3  A    between atoms: C_4  and  O_12 
REMARK    4  A    between atoms: O_12  and  C_14 
REMARK    5  A    between atoms: C_13  and  C_15 
REMARK    6  A    between atoms: C_14  and  C_15 
ROOT
HETATM    1  C   UNL     1      -1.450   0.131  -0.036  1.00  0.00     0.069 A 
HETATM    2  C   UNL     1      -0.678   1.304  -0.016  1.00  0.00     0.050 A 
HETATM    3  C   UNL     1      -0.821  -1.126  -0.060  1.00  0.00     0.090 A 
HETATM    4  C   UNL     1       0.585  -1.164  -0.045  1.00  0.00     0.040 A 
HETATM    5  C   UNL     1       0.711   1.237  -0.011  1.00  0.00     0.035 A 
HETATM    6 CL   UNL     1      -3.158   0.401   0.003  1.00  0.00    -0.081 Cl
HETATM    7  C   UNL     1       1.350   0.005  -0.022  1.00  0.00     0.026 A 
HETATM    8 CL   UNL     1       1.638   2.685   0.015  1.00  0.00    -0.084 Cl
ENDROOT
BRANCH   3   9
HETATM    9  O   UNL     1      -1.350  -2.389  -0.085  1.00  0.00    -0.349 OA
BRANCH   9  10
HETATM   10  C   UNL     1      -2.743  -2.568  -0.302  1.00  0.00     0.176 C 
BRANCH  10  11
HETATM   11  C   UNL     1      -3.026  -4.062  -0.464  1.00  0.00     0.037 C 
BRANCH  11  12
HETATM   12  C   UNL     1      -4.518  -4.301  -0.668  1.00  0.00     0.112 C 
BRANCH  12  13
HETATM   13  C   UNL     1      -4.992  -5.728  -0.818  1.00  0.00     0.139 C 
HETATM   14  O   UNL     1      -6.178  -5.998  -0.963  1.00  0.00    -0.650 OA
BRANCH  13  15
HETATM   15  O   UNL     1      -4.057  -6.693  -0.789  1.00  0.00    -0.776 OA
HETATM   16  H   UNL     1      -3.134  -6.410  -0.672  1.00  0.00     0.167 HD
ENDBRANCH  13  15
ENDBRANCH  12  13
ENDBRANCH  11  12
ENDBRANCH  10  11
ENDBRANCH   9  10
ENDBRANCH   3   9
TORSDOF 6
