REMARK  4 active torsions:
REMARK  status: ('A' for Active; 'I' for Inactive)
REMARK    1  A    between atoms: C_2  and  O_4 
REMARK    2  A    between atoms: C_3  and  O_5 
REMARK    3  A    between atoms: O_4  and  S_8 
REMARK    4  A    between atoms: O_5  and  S_8 
ROOT
HETATM    1  O   UNL     1       5.319  -0.261   1.224  1.00  0.00    -0.169 OA
HETATM    2  O   UNL     1       5.121  -2.704   0.638  1.00  0.00    -0.169 OA
HETATM    3  S   UNL     1       4.808  -1.315   0.372  1.00  0.00     0.401 S 
ENDROOT
BRANCH   3   4
HETATM    4  O   UNL     1       3.187  -1.179   0.317  1.00  0.00    -0.254 OA
BRANCH   4   5
HETATM    5  C   UNL     1       2.633   0.102   0.071  1.00  0.00     0.188 C 
HETATM    6  C   UNL     1       1.123  -0.025   0.059  1.00  0.00     0.035 C 
ENDBRANCH   4   5
ENDBRANCH   3   4
BRANCH   3   7
HETATM    7  O   UNL     1       5.262  -0.977  -1.154  1.00  0.00    -0.254 OA
BRANCH   7   8
HETATM    8  C   UNL     1       4.877  -1.878  -2.179  1.00  0.00     0.188 C 
HETATM    9  C   UNL     1       5.404  -1.351  -3.499  1.00  0.00     0.035 C 
ENDBRANCH   7   8
ENDBRANCH   3   7
TORSDOF 4
