REMARK  4 active torsions:
REMARK  status: ('A' for Active; 'I' for Inactive)
REMARK    1  A    between atoms: C_3  and  O_8 
REMARK    2  A    between atoms: C_6  and  O_7 
REMARK    3  A    between atoms: O_7  and  P_10 
REMARK    4  A    between atoms: O_8  and  P_10 
ROOT
HETATM    1  O   UNL     1       4.849   1.746   2.273  1.00  0.00    -0.259 OA
HETATM    2  P   UNL     1       4.816   0.930   0.975  1.00  0.00     0.325 P 
HETATM    3  C   UNL     1       6.646   0.930   0.975  1.00  0.00     0.149 C 
ENDROOT
BRANCH   2   4
HETATM    4  O   UNL     1       4.780   1.998  -0.294  1.00  0.00    -0.310 OA
BRANCH   4   5
HETATM    5  C   UNL     1       5.521   1.897  -1.506  1.00  0.00     0.123 C 
HETATM    6  C   UNL     1       5.062   0.760  -2.402  1.00  0.00     0.040 C 
HETATM    7  C   UNL     1       5.378   3.230  -2.233  1.00  0.00     0.040 C 
ENDBRANCH   4   5
ENDBRANCH   2   4
BRANCH   2   8
HETATM    8  O   UNL     1       3.086   0.930   0.975  1.00  0.00    -0.310 OA
BRANCH   8   9
HETATM    9  C   UNL     1       2.376  -0.263   0.698  1.00  0.00     0.123 C 
HETATM   10  C   UNL     1       0.947  -0.039   1.185  1.00  0.00     0.040 C 
HETATM   11  C   UNL     1       2.358  -0.546  -0.794  1.00  0.00     0.040 C 
ENDBRANCH   8   9
ENDBRANCH   2   8
TORSDOF 4
