REMARK  3 active torsions:
REMARK  status: ('A' for Active; 'I' for Inactive)
REMARK    1  A    between atoms: C_1  and  C_2 
REMARK    2  A    between atoms: C_7  and  N_13 
REMARK    3  A    between atoms: C_8  and  N_14 
ROOT
HETATM    1  C   UNL     1      -1.387  -0.096  -0.189  1.00  0.00    -0.025 C 
HETATM    2  C   UNL     1      -0.702   1.135  -0.245  1.00  0.00     0.021 C 
HETATM    3  C   UNL     1       0.702   1.243  -0.123  1.00  0.00    -0.040 C 
HETATM    4  C   UNL     1       1.477   0.082  -0.026  1.00  0.00     0.011 C 
HETATM    5  C   UNL     1      -0.579  -1.226   0.025  1.00  0.00     0.014 C 
HETATM    6  C   UNL     1       0.818  -1.138   0.113  1.00  0.00     0.024 C 
HETATM    7  C   UNL     1       1.330   2.610  -0.136  1.00  0.00     0.050 C 
ENDROOT
BRANCH   1   8
HETATM    8  C   UNL     1      -2.873  -0.193  -0.351  1.00  0.00    -0.025 C 
HETATM    9  C   UNL     1      -3.530  -1.425  -0.550  1.00  0.00     0.021 C 
HETATM   10  C   UNL     1      -4.928  -1.533  -0.734  1.00  0.00    -0.040 C 
HETATM   11  C   UNL     1      -5.539  -2.900  -0.877  1.00  0.00     0.050 C 
HETATM   12  C   UNL     1      -5.705  -0.372  -0.811  1.00  0.00     0.011 C 
HETATM   13  C   UNL     1      -5.091   0.849  -0.537  1.00  0.00     0.024 C 
HETATM   14  C   UNL     1      -3.708   0.937  -0.321  1.00  0.00     0.014 C 
BRANCH  12  15
HETATM   15  N   UNL     1      -7.102  -0.421  -0.928  1.00  0.00    -0.302 NA
HETATM   16  H   UNL     1      -7.438  -1.230  -1.440  1.00  0.00     0.124 HD
HETATM   17  H   UNL     1      -7.506   0.440  -1.282  1.00  0.00     0.124 HD
ENDBRANCH  12  15
ENDBRANCH   1   8
BRANCH   4  18
HETATM   18  N   UNL     1       2.866   0.132   0.162  1.00  0.00    -0.302 NA
HETATM   19  H   UNL     1       3.305   0.939  -0.269  1.00  0.00     0.124 HD
HETATM   20  H   UNL     1       3.337  -0.731  -0.094  1.00  0.00     0.124 HD
ENDBRANCH   4  18
TORSDOF 3
