REMARK  2 active torsions:
REMARK  status: ('A' for Active; 'I' for Inactive)
REMARK    1  A    between atoms: S_1  and  O_4 
REMARK    2  A    between atoms: S_1  and  O_5 
ROOT
HETATM    1  S   UNL     1       0.926  -0.094  -0.230  1.00  0.00     0.401 S 
HETATM    2  O   UNL     1       0.513   0.581  -1.444  1.00  0.00    -0.169 OA
HETATM    3  O   UNL     1       0.513  -1.456   0.040  1.00  0.00    -0.169 OA
ENDROOT
BRANCH   1   4
HETATM    4  O   UNL     1       0.475   0.826   1.032  1.00  0.00    -0.259 OA
HETATM    5  C   UNL     1      -0.912   0.985   1.250  1.00  0.00     0.228 C 
ENDBRANCH   1   4
BRANCH   1   6
HETATM    6  O   UNL     1       2.549  -0.037  -0.153  1.00  0.00    -0.259 OA
HETATM    7  C   UNL     1       3.265  -0.755  -1.137  1.00  0.00     0.228 C 
ENDBRANCH   1   6
TORSDOF 2
