REMARK  0 active torsions:
REMARK  status: ('A' for Active; 'I' for Inactive)
ROOT
HETATM    1  S   UNL     1       1.188  -1.147  -0.050  1.00  0.00     0.173 S 
HETATM    2  S   UNL     1      -1.105   1.245   0.054  1.00  0.00     0.173 S 
HETATM    3  C   UNL     1      -1.466  -0.460  -0.005  1.00  0.00     0.050 C 
HETATM    4  C   UNL     1      -0.531  -1.435   0.010  1.00  0.00     0.050 C 
HETATM    5  C   UNL     1       0.581   1.430  -0.418  1.00  0.00     0.160 C 
HETATM    6  C   UNL     1       1.445   0.531   0.415  1.00  0.00     0.160 C 
HETATM    7  O   UNL     1       1.593  -1.255  -1.440  1.00  0.00    -0.223 OA
HETATM    8  O   UNL     1       1.824  -1.962   0.963  1.00  0.00    -0.223 OA
HETATM    9  O   UNL     1      -1.191   1.656   1.443  1.00  0.00    -0.223 OA
HETATM   10  O   UNL     1      -1.896   1.916  -0.957  1.00  0.00    -0.223 OA
HETATM   11  C   UNL     1      -0.890  -2.898  -0.031  1.00  0.00     0.062 C 
HETATM   12  C   UNL     1      -2.943  -0.756   0.037  1.00  0.00     0.062 C 
ENDROOT
TORSDOF 0
