REMARK  2 active torsions:
REMARK  status: ('A' for Active; 'I' for Inactive)
REMARK    1  A    between atoms: C_1  and  N_7 
REMARK    2  A    between atoms: C_5  and  N_10 
ROOT
HETATM    1  C   UNL     1      -0.606  -1.257  -0.083  1.00  0.00     0.105 A 
HETATM    2  C   UNL     1      -1.386  -0.091  -0.027  1.00  0.00     0.036 A 
HETATM    3  C   UNL     1      -0.764   1.159  -0.002  1.00  0.00     0.005 A 
HETATM    4  C   UNL     1       0.629   1.249  -0.033  1.00  0.00     0.036 A 
HETATM    5  C   UNL     1       1.402   0.078  -0.088  1.00  0.00     0.105 A 
HETATM    6  C   UNL     1       0.793  -1.184  -0.114  1.00  0.00     0.072 A 
ENDROOT
BRANCH   1   7
HETATM    7  N   UNL     1      -1.267  -2.569  -0.111  1.00  0.00    -0.116 N 
HETATM    8  O   UNL     1      -0.545  -3.575  -0.086  1.00  0.00    -0.532 OA
HETATM    9  O   UNL     1      -2.504  -2.589  -0.158  1.00  0.00    -0.532 OA
ENDBRANCH   1   7
BRANCH   5  10
HETATM   10  N   UNL     1       2.868   0.180  -0.122  1.00  0.00    -0.116 N 
HETATM   11  O   UNL     1       3.365   1.313  -0.169  1.00  0.00    -0.532 OA
HETATM   12  O   UNL     1       3.516  -0.875  -0.102  1.00  0.00    -0.532 OA
ENDBRANCH   5  10
TORSDOF 2
