REMARK  2 active torsions:
REMARK  status: ('A' for Active; 'I' for Inactive)
REMARK    1  A    between atoms: N_2  and  C_9 
REMARK    2  A    between atoms: C_5  and  N_10 
ROOT
HETATM    1  C   UNL     1       3.108   3.693   0.374  1.00  0.00     0.038 A 
HETATM    2  C   UNL     1       2.392   2.511   0.139  1.00  0.00     0.135 A 
HETATM    3  C   UNL     1       4.442   3.614   0.782  1.00  0.00     0.003 A 
HETATM    4  C   UNL     1       5.057   2.370   0.951  1.00  0.00     0.003 A 
HETATM    5  C   UNL     1       4.341   1.192   0.722  1.00  0.00     0.038 A 
HETATM    6  C   UNL     1       3.002   1.271   0.318  1.00  0.00     0.135 A 
ENDROOT
BRANCH   2   7
HETATM    7  N   UNL     1       1.038   2.621  -0.365  1.00  0.00    -0.113 N 
HETATM    8  O   UNL     1       0.773   1.992  -1.397  1.00  0.00    -0.532 OA
HETATM    9  O   UNL     1       0.273   3.385   0.236  1.00  0.00    -0.532 OA
ENDBRANCH   2   7
BRANCH   6  10
HETATM   10  N   UNL     1       2.259   0.036   0.171  1.00  0.00    -0.113 N 
HETATM   11  O   UNL     1       1.196  -0.055   0.798  1.00  0.00    -0.532 OA
HETATM   12  O   UNL     1       2.776  -0.855  -0.515  1.00  0.00    -0.532 OA
ENDBRANCH   6  10
TORSDOF 2
