REMARK  4 active torsions:
REMARK  status: ('A' for Active; 'I' for Inactive)
REMARK    1  A    between atoms: C_1  and  C_7 
REMARK    2  A    between atoms: C_2  and  C_6 
REMARK    3  A    between atoms: C_6  and  O_12 
REMARK    4  A    between atoms: C_7  and  O_13 
ROOT
HETATM    1  C   UNL     1      -1.222  -0.818  -0.562  1.00  0.00     0.129 C 
HETATM    2  C   UNL     1      -1.228   0.719  -0.574  1.00  0.00     0.129 C 
HETATM    3  C   UNL     1       0.078  -1.125   0.186  1.00  0.00     0.137 C 
HETATM    4  C   UNL     1      -0.039   1.046   0.335  1.00  0.00     0.137 C 
HETATM    5  O   UNL     1       0.000  -0.105   1.217  1.00  0.00    -0.379 OA
HETATM    6  C   UNL     1       1.261   0.849  -0.447  1.00  0.00     0.035 C 
HETATM    7  C   UNL     1       1.369  -0.675  -0.499  1.00  0.00     0.035 C 
ENDROOT
BRANCH   1   8
HETATM    8  C   UNL     1      -1.331  -1.386  -1.948  1.00  0.00     0.147 C 
HETATM    9  O   UNL     1      -0.429  -1.915  -2.576  1.00  0.00    -0.650 OA
BRANCH   8  10
HETATM   10  O   UNL     1      -2.567  -1.217  -2.477  1.00  0.00    -0.776 OA
HETATM   11  H   UNL     1      -3.269  -1.004  -1.827  1.00  0.00     0.167 HD
ENDBRANCH   8  10
ENDBRANCH   1   8
BRANCH   2  12
HETATM   12  C   UNL     1      -2.529   1.230  -0.006  1.00  0.00     0.147 C 
HETATM   13  O   UNL     1      -2.746   1.493   1.165  1.00  0.00    -0.650 OA
BRANCH  12  14
HETATM   14  O   UNL     1      -3.504   1.299  -0.947  1.00  0.00    -0.776 OA
HETATM   15  H   UNL     1      -3.197   1.279  -1.875  1.00  0.00     0.167 HD
ENDBRANCH  12  14
ENDBRANCH   2  12
TORSDOF 4
