REMARK  4 active torsions:
REMARK  status: ('A' for Active; 'I' for Inactive)
REMARK    1  A    between atoms: P_1  and  C_2 
REMARK    2  A    between atoms: P_1  and  O_4 
REMARK    3  A    between atoms: P_1  and  O_5 
REMARK    4  A    between atoms: C_2  and  C_7 
ROOT
HETATM    1  P   UNL     1       1.009  -0.061  -0.079  1.00  0.00     0.236 P 
HETATM    2  O   UNL     1       1.009  -1.470   0.509  1.00  0.00    -0.653 OA
ENDROOT
BRANCH   1   3
HETATM    3  C   UNL     1       1.009  -0.253  -1.947  1.00  0.00     0.140 C 
BRANCH   3   4
HETATM    4  C   UNL     1       1.030   1.127  -2.570  1.00  0.00     0.126 C 
HETATM    5 CL   UNL     1       1.016   1.014  -4.343  1.00  0.00    -0.130 Cl
ENDBRANCH   3   4
ENDBRANCH   1   3
BRANCH   1   6
HETATM    6  O   UNL     1      -0.721  -0.061  -0.079  1.00  0.00    -0.329 OA
HETATM    7  H   UNL     1      -0.977  -0.968   0.197  1.00  0.00     0.220 HD
ENDBRANCH   1   6
BRANCH   1   8
HETATM    8  O   UNL     1       2.739  -0.061  -0.079  1.00  0.00    -0.329 OA
HETATM    9  H   UNL     1       2.992  -0.916   0.332  1.00  0.00     0.220 HD
ENDBRANCH   1   8
TORSDOF 4
