REMARK  4 active torsions:
REMARK  status: ('A' for Active; 'I' for Inactive)
REMARK    1  A    between atoms: O_1  and  C_3 
REMARK    2  A    between atoms: O_2  and  C_4 
REMARK    3  A    between atoms: O_2  and  C_5 
REMARK    4  A    between atoms: C_3  and  C_4 
ROOT
HETATM    1  C   UNL     1       2.993   0.107  -1.462  1.00  0.00     0.193 C 
ENDROOT
BRANCH   1   2
HETATM    2  O   UNL     1       4.420   0.109  -1.485  1.00  0.00    -0.389 OA
BRANCH   2   3
HETATM    3  C   UNL     1       4.922   0.203  -2.816  1.00  0.00     0.163 C 
HETATM    4  C   UNL     1       6.436   0.199  -2.759  1.00  0.00     0.033 C 
ENDBRANCH   2   3
ENDBRANCH   1   2
BRANCH   1   5
HETATM    5  C   UNL     1       2.514   0.004  -0.020  1.00  0.00     0.190 C 
BRANCH   5   6
HETATM    6  O   UNL     1       1.092   0.001   0.027  1.00  0.00    -0.399 OA
HETATM    7  H   UNL     1       0.844  -0.066   0.965  1.00  0.00     0.209 HD
ENDBRANCH   5   6
ENDBRANCH   1   5
TORSDOF 4
