REMARK  12 active torsions:
REMARK  status: ('A' for Active; 'I' for Inactive)
REMARK    1  A    between atoms: P_1  and  S_3 
REMARK    2  A    between atoms: P_1  and  O_8 
REMARK    3  A    between atoms: P_1  and  O_11 
REMARK    4  A    between atoms: P_2  and  S_4 
REMARK    5  A    between atoms: P_2  and  O_9 
REMARK    6  A    between atoms: P_2  and  O_10 
REMARK    7  A    between atoms: S_3  and  C_5 
REMARK    8  A    between atoms: S_4  and  C_5 
REMARK    9  A    between atoms: O_8  and  C_12 
REMARK   10  A    between atoms: O_9  and  C_15 
REMARK   11  A    between atoms: O_10  and  C_14 
REMARK   12  A    between atoms: O_11  and  C_13 
ROOT
HETATM    1  C   UNL     1       0.549   2.243  -2.364  1.00  0.00     0.167 C 
ENDROOT
BRANCH   1   2
HETATM    2  S   UNL     1       1.021   0.481  -2.246  1.00  0.00    -0.064 SA
BRANCH   2   3
HETATM    3  P   UNL     1       0.954   0.027  -0.084  1.00  0.00     0.248 P 
HETATM    4  S   UNL     1       1.086  -1.861   0.603  1.00  0.00    -0.026 SA
BRANCH   3   5
HETATM    5  O   UNL     1      -0.776   0.027  -0.084  1.00  0.00    -0.327 OA
BRANCH   5   6
HETATM    6  C   UNL     1      -1.568  -0.931  -0.786  1.00  0.00     0.172 C 
HETATM    7  C   UNL     1      -3.016  -0.479  -0.730  1.00  0.00     0.034 C 
ENDBRANCH   5   6
ENDBRANCH   3   5
BRANCH   3   8
HETATM    8  O   UNL     1       2.684   0.027  -0.084  1.00  0.00    -0.327 OA
BRANCH   8   9
HETATM    9  C   UNL     1       3.295   1.281   0.178  1.00  0.00     0.172 C 
HETATM   10  C   UNL     1       4.797   1.093   0.199  1.00  0.00     0.034 C 
ENDBRANCH   8   9
ENDBRANCH   3   8
ENDBRANCH   2   3
ENDBRANCH   1   2
BRANCH   1  11
HETATM   11  S   UNL     1       0.954   2.845  -4.025  1.00  0.00    -0.064 SA
BRANCH  11  12
HETATM   12  P   UNL     1       0.954   4.958  -4.192  1.00  0.00     0.248 P 
HETATM   13  S   UNL     1      -0.902   5.103  -3.401  1.00  0.00    -0.026 SA
BRANCH  12  14
HETATM   14  O   UNL     1       2.103   5.121  -2.995  1.00  0.00    -0.327 OA
BRANCH  14  15
HETATM   15  C   UNL     1       3.378   4.508  -3.175  1.00  0.00     0.172 C 
HETATM   16  C   UNL     1       4.445   5.252  -2.402  1.00  0.00     0.034 C 
ENDBRANCH  14  15
ENDBRANCH  12  14
BRANCH  12  17
HETATM   17  O   UNL     1       0.954   6.682  -4.329  1.00  0.00    -0.327 OA
BRANCH  17  18
HETATM   18  C   UNL     1       0.965   7.137  -5.676  1.00  0.00     0.172 C 
HETATM   19  C   UNL     1       0.961   8.650  -5.685  1.00  0.00     0.034 C 
ENDBRANCH  17  18
ENDBRANCH  12  17
ENDBRANCH  11  12
ENDBRANCH   1  11
TORSDOF 12
