REMARK  6 active torsions:
REMARK  status: ('A' for Active; 'I' for Inactive)
REMARK       I    between atoms: C_1  and  N_2 
REMARK    1  A    between atoms: C_1  and  S_4 
REMARK    2  A    between atoms: N_2  and  C_5 
REMARK    3  A    between atoms: N_2  and  C_6 
REMARK    4  A    between atoms: S_4  and  C_7 
REMARK    5  A    between atoms: C_5  and  C_9 
REMARK    6  A    between atoms: C_6  and  C_8 
ROOT
HETATM    1  C   UNL     1       1.227  -0.028  -0.040  1.00  0.00     0.281 C 
HETATM    2  N   UNL     1       0.406  -0.828  -0.856  1.00  0.00    -0.343 N 
HETATM    3  O   UNL     1       0.747   0.764   0.767  1.00  0.00    -0.260 OA
ENDROOT
BRANCH   2   4
HETATM    4  C   UNL     1      -1.070  -0.738  -0.763  1.00  0.00     0.126 C 
BRANCH   4   5
HETATM    5  C   UNL     1      -1.754   0.223   0.215  1.00  0.00     0.015 C 
HETATM    6  C   UNL     1      -3.271   0.125   0.116  1.00  0.00     0.006 C 
ENDBRANCH   4   5
ENDBRANCH   2   4
BRANCH   2   7
HETATM    7  C   UNL     1       0.922  -1.786  -1.833  1.00  0.00     0.126 C 
BRANCH   7   8
HETATM    8  C   UNL     1      -0.062  -2.611  -2.673  1.00  0.00     0.015 C 
HETATM    9  C   UNL     1       0.693  -3.538  -3.618  1.00  0.00     0.006 C 
ENDBRANCH   7   8
ENDBRANCH   2   7
BRANCH   1  10
HETATM   10  S   UNL     1       2.988  -0.021  -0.033  1.00  0.00    -0.070 SA
BRANCH  10  11
HETATM   11  C   UNL     1       3.754  -1.150  -1.184  1.00  0.00     0.079 C 
HETATM   12  C   UNL     1       5.270  -1.039  -1.071  1.00  0.00     0.016 C 
ENDBRANCH  10  11
ENDBRANCH   1  10
TORSDOF 6
