REMARK  5 active torsions:
REMARK  status: ('A' for Active; 'I' for Inactive)
REMARK    1  A    between atoms: C_1  and  C_3 
REMARK    2  A    between atoms: C_2  and  C_6 
REMARK       I    between atoms: C_3  and  N_7 
REMARK    3  A    between atoms: N_7  and  C_14 
REMARK    4  A    between atoms: C_17  and  O_20 
REMARK    5  A    between atoms: O_20  and  C_21 
ROOT
HETATM    1  C   UNL     1      -2.996  -0.321  -0.177  1.00  0.00     0.257 C 
HETATM    2  N   UNL     1      -3.352  -1.610  -0.481  1.00  0.00    -0.323 N 
HETATM    3  O   UNL     1      -3.854   0.560  -0.111  1.00  0.00    -0.267 OA
HETATM    4  H   UNL     1      -4.358  -1.734  -0.421  1.00  0.00     0.169 HD
ENDROOT
BRANCH   1   5
HETATM    5  C   UNL     1      -1.607   0.050   0.155  1.00  0.00     0.047 A 
HETATM    6  C   UNL     1      -0.907  -0.498   1.244  1.00  0.00     0.063 A 
HETATM    7  C   UNL     1       0.415  -0.065   1.468  1.00  0.00     0.017 A 
HETATM    8  C   UNL     1       1.001   0.916   0.665  1.00  0.00     0.001 A 
HETATM    9  C   UNL     1       0.275   1.488  -0.375  1.00  0.00     0.001 A 
HETATM   10  C   UNL     1      -1.027   1.061  -0.628  1.00  0.00     0.018 A 
BRANCH   6  11
HETATM   11  C   UNL     1      -1.503  -1.516   2.183  1.00  0.00     0.418 C 
HETATM   12  F   UNL     1      -1.172  -2.792   1.846  1.00  0.00    -0.166 F 
HETATM   13  F   UNL     1      -1.048  -1.359   3.462  1.00  0.00    -0.166 F 
HETATM   14  F   UNL     1      -2.857  -1.483   2.286  1.00  0.00    -0.166 F 
ENDBRANCH   6  11
ENDBRANCH   1   5
BRANCH   2  15
HETATM   15  C   UNL     1      -2.604  -2.748  -0.831  1.00  0.00     0.037 A 
HETATM   16  C   UNL     1      -1.290  -2.711  -1.308  1.00  0.00     0.066 A 
HETATM   17  C   UNL     1      -0.608  -3.897  -1.594  1.00  0.00     0.071 A 
HETATM   18  C   UNL     1      -1.262  -5.121  -1.444  1.00  0.00     0.037 A 
HETATM   19  C   UNL     1      -2.581  -5.168  -1.004  1.00  0.00     0.005 A 
HETATM   20  C   UNL     1      -3.252  -3.983  -0.708  1.00  0.00     0.029 A 
BRANCH  17  21
HETATM   21  O   UNL     1       0.675  -3.995  -2.058  1.00  0.00    -0.347 OA
BRANCH  21  22
HETATM   22  C   UNL     1       1.586  -2.917  -1.812  1.00  0.00     0.120 C 
HETATM   23  C   UNL     1       2.061  -2.943  -0.361  1.00  0.00     0.040 C 
HETATM   24  C   UNL     1       2.773  -3.128  -2.749  1.00  0.00     0.040 C 
ENDBRANCH  21  22
ENDBRANCH  17  21
ENDBRANCH   2  15
TORSDOF 5
