REMARK  3 active torsions:
REMARK  status: ('A' for Active; 'I' for Inactive)
REMARK    1  A    between atoms: C_4  and  C_9 
REMARK    2  A    between atoms: C_5  and  C_15 
REMARK    3  A    between atoms: C_18  and  C_21 
ROOT
HETATM    1  N   UNL     1      -0.656   1.113   0.172  1.00  0.00    -0.369 N 
HETATM    2  C   UNL     1      -1.303  -0.111   0.133  1.00  0.00     0.106 C 
HETATM    3  C   UNL     1       0.730   1.118   0.117  1.00  0.00     0.106 C 
HETATM    4  C   UNL     1       1.512   0.056  -0.158  1.00  0.00     0.041 C 
HETATM    5  C   UNL     1      -0.718  -1.291  -0.145  1.00  0.00     0.041 C 
HETATM    6  C   UNL     1       0.752  -1.210  -0.488  1.00  0.00     0.196 C 
HETATM    7  O   UNL     1       1.311  -2.159  -1.046  1.00  0.00    -0.286 OA
HETATM    8  C   UNL     1      -1.398   2.372   0.288  1.00  0.00     0.154 C 
ENDROOT
BRANCH   5   9
HETATM    9  C   UNL     1      -1.471  -2.575  -0.151  1.00  0.00    -0.020 A 
HETATM   10  C   UNL     1      -0.821  -3.789   0.135  1.00  0.00     0.028 A 
HETATM   11  C   UNL     1      -1.494  -5.023   0.085  1.00  0.00     0.048 A 
HETATM   12  C   UNL     1      -2.859  -5.038  -0.225  1.00  0.00     0.016 A 
HETATM   13  C   UNL     1      -3.529  -3.847  -0.491  1.00  0.00     0.002 A 
HETATM   14  C   UNL     1      -2.839  -2.632  -0.465  1.00  0.00     0.012 A 
BRANCH  11  15
HETATM   15  C   UNL     1      -0.758  -6.320   0.314  1.00  0.00     0.417 C 
HETATM   16  F   UNL     1      -1.388  -7.124   1.217  1.00  0.00    -0.166 F 
HETATM   17  F   UNL     1      -0.645  -7.061  -0.824  1.00  0.00    -0.166 F 
HETATM   18  F   UNL     1       0.510  -6.161   0.784  1.00  0.00    -0.166 F 
ENDBRANCH  11  15
ENDBRANCH   5   9
BRANCH   4  19
HETATM   19  C   UNL     1       3.001   0.133  -0.156  1.00  0.00    -0.021 A 
HETATM   20  C   UNL     1       3.687   1.350  -0.330  1.00  0.00     0.012 A 
HETATM   21  C   UNL     1       5.086   1.411  -0.319  1.00  0.00     0.001 A 
HETATM   22  C   UNL     1       5.835   0.252  -0.153  1.00  0.00     0.000 A 
HETATM   23  C   UNL     1       5.185  -0.965   0.015  1.00  0.00     0.001 A 
HETATM   24  C   UNL     1       3.786  -1.020   0.024  1.00  0.00     0.012 A 
ENDBRANCH   4  19
TORSDOF 3
