REMARK  7 active torsions:
REMARK  status: ('A' for Active; 'I' for Inactive)
REMARK    1  A    between atoms: P_1  and  N_2 
REMARK    2  A    between atoms: P_1  and  O_3 
REMARK    3  A    between atoms: P_1  and  O_9 
REMARK    4  A    between atoms: N_2  and  C_13 
REMARK    5  A    between atoms: O_3  and  C_8 
REMARK    6  A    between atoms: C_6  and  S_11 
REMARK    7  A    between atoms: O_9  and  C_16 
ROOT
HETATM    1  P   UNL     1       0.989   0.068   0.073  1.00  0.00     0.412 P 
HETATM    2  O   UNL     1      -0.559   0.068   0.073  1.00  0.00    -0.239 OA
ENDROOT
BRANCH   1   3
HETATM    3  N   UNL     1       1.086  -1.564  -0.405  1.00  0.00    -0.223 NA
HETATM    4  H   UNL     1       0.392  -2.026   0.176  1.00  0.00     0.134 HD
BRANCH   3   5
HETATM    5  C   UNL     1       0.807  -1.904  -1.801  1.00  0.00     0.058 C 
HETATM    6  C   UNL     1       1.824  -1.281  -2.754  1.00  0.00     0.026 C 
HETATM    7  C   UNL     1       0.826  -3.425  -1.947  1.00  0.00     0.026 C 
ENDBRANCH   3   5
ENDBRANCH   1   3
BRANCH   1   8
HETATM    8  O   UNL     1       1.050  -0.080   1.748  1.00  0.00    -0.260 OA
BRANCH   8   9
HETATM    9  C   UNL     1       2.169   0.183   2.492  1.00  0.00     0.080 A 
HETATM   10  C   UNL     1       2.992  -0.882   2.844  1.00  0.00     0.045 A 
HETATM   11  C   UNL     1       4.235  -0.672   3.478  1.00  0.00    -0.043 A 
HETATM   12  C   UNL     1       5.043  -1.903   3.765  1.00  0.00     0.049 C 
HETATM   13  C   UNL     1       4.637   0.648   3.767  1.00  0.00     0.006 A 
HETATM   14  C   UNL     1       3.754   1.705   3.438  1.00  0.00     0.022 A 
HETATM   15  C   UNL     1       2.524   1.482   2.813  1.00  0.00     0.039 A 
BRANCH  13  16
HETATM   16  S   UNL     1       6.126   1.213   4.604  1.00  0.00    -0.134 SA
HETATM   17  C   UNL     1       7.405  -0.014   4.243  1.00  0.00     0.095 C 
ENDBRANCH  13  16
ENDBRANCH   8   9
ENDBRANCH   1   8
BRANCH   1  18
HETATM   18  O   UNL     1       2.719   0.068   0.073  1.00  0.00    -0.302 OA
BRANCH  18  19
HETATM   19  C   UNL     1       3.308   1.155  -0.622  1.00  0.00     0.175 C 
HETATM   20  C   UNL     1       4.805   0.934  -0.676  1.00  0.00     0.034 C 
ENDBRANCH  18  19
ENDBRANCH   1  18
TORSDOF 7
