REMARK  6 active torsions:
REMARK  status: ('A' for Active; 'I' for Inactive)
REMARK    1  A    between atoms: C_1  and  S_3 
REMARK    2  A    between atoms: C_2  and  C_6 
REMARK    3  A    between atoms: S_3  and  N_7 
REMARK    4  A    between atoms: C_6  and  O_12 
REMARK       I    between atoms: N_7  and  C_14 
REMARK       I    between atoms: C_14  and  N_16 
REMARK    5  A    between atoms: N_16  and  C_18 
REMARK    6  A    between atoms: C_21  and  O_24 
ROOT
HETATM    1  N   UNL     1      -3.250  -0.675  -1.721  1.00  0.00    -0.231 N 
HETATM    2  C   UNL     1      -2.836  -0.105  -2.935  1.00  0.00     0.350 C 
HETATM    3  N   UNL     1      -2.414   1.207  -3.116  1.00  0.00    -0.133 N 
HETATM    4  O   UNL     1      -2.939  -0.894  -3.870  1.00  0.00    -0.245 OA
HETATM    5  C   UNL     1      -2.510   2.291  -2.152  1.00  0.00     0.180 C 
HETATM    6  H   UNL     1      -3.461  -1.663  -1.891  1.00  0.00     0.183 HD
ENDROOT
BRANCH   1   7
HETATM    7  S   UNL     1      -3.037  -0.464  -0.104  1.00  0.00     0.267 S 
HETATM    8  O   UNL     1      -3.325  -1.729   0.536  1.00  0.00    -0.200 OA
HETATM    9  O   UNL     1      -3.755   0.716   0.325  1.00  0.00    -0.200 OA
BRANCH   7  10
HETATM   10  C   UNL     1      -1.309  -0.173   0.091  1.00  0.00     0.096 A 
HETATM   11  C   UNL     1      -0.385  -1.187  -0.142  1.00  0.00     0.062 A 
HETATM   12  C   UNL     1       0.991  -0.914  -0.054  1.00  0.00     0.019 A 
HETATM   13  C   UNL     1       1.436   0.344   0.338  1.00  0.00     0.001 A 
HETATM   14  C   UNL     1       0.510   1.332   0.657  1.00  0.00     0.002 A 
HETATM   15  C   UNL     1      -0.859   1.076   0.541  1.00  0.00     0.026 A 
BRANCH  11  16
HETATM   16  C   UNL     1      -0.761  -2.569  -0.478  1.00  0.00     0.294 C 
HETATM   17  O   UNL     1      -1.324  -2.908  -1.503  1.00  0.00    -0.259 OA
BRANCH  16  18
HETATM   18  O   UNL     1      -0.188  -3.347   0.467  1.00  0.00    -0.322 OA
HETATM   19  C   UNL     1       0.619  -4.407  -0.042  1.00  0.00     0.213 C 
ENDBRANCH  16  18
ENDBRANCH  11  16
ENDBRANCH   7  10
ENDBRANCH   1   7
BRANCH   3  20
HETATM   20  C   UNL     1      -1.996   1.649  -4.417  1.00  0.00     0.737 A 
HETATM   21  N   UNL     1      -1.613   0.783  -5.346  1.00  0.00    -0.018 NA
HETATM   22  C   UNL     1      -1.277   1.308  -6.522  1.00  0.00     0.286 A 
HETATM   23  N   UNL     1      -1.300   2.597  -6.835  1.00  0.00    -0.191 NA
HETATM   24  C   UNL     1      -1.671   3.392  -5.844  1.00  0.00     0.145 A 
HETATM   25  N   UNL     1      -1.988   2.971  -4.621  1.00  0.00    -0.047 NA
HETATM   26  C   UNL     1      -1.759   4.860  -6.120  1.00  0.00     0.094 C 
BRANCH  22  27
HETATM   27  O   UNL     1      -0.854   0.493  -7.550  1.00  0.00    -0.324 OA
HETATM   28  C   UNL     1      -0.643  -0.854  -7.152  1.00  0.00     0.213 C 
ENDBRANCH  22  27
ENDBRANCH   3  20
TORSDOF 6
