REMARK  0 active torsions:
REMARK  status: ('A' for Active; 'I' for Inactive)
ROOT
HETATM    1  C   UNL     1      -0.899   0.007  -0.001  1.00  0.00    -0.004 A 
HETATM    2  C   UNL     1      -2.292   0.019  -0.001  1.00  0.00    -0.024 A 
HETATM    3  C   UNL     1      -0.097   1.139  -0.001  1.00  0.00    -0.013 A 
HETATM    4  C   UNL     1      -2.895   1.292  -0.002  1.00  0.00     0.012 A 
HETATM    5  C   UNL     1      -0.693   2.387  -0.001  1.00  0.00     0.013 A 
HETATM    6  C   UNL     1      -2.098   2.458  -0.001  1.00  0.00     0.002 A 
HETATM    7  C   UNL     1      -0.117  -1.140  -0.001  1.00  0.00    -0.013 A 
HETATM    8  C   UNL     1      -0.736  -2.377  -0.001  1.00  0.00     0.013 A 
HETATM    9  C   UNL     1      -2.918  -1.243  -0.002  1.00  0.00     0.012 A 
HETATM   10  C   UNL     1      -2.142  -2.423  -0.002  1.00  0.00     0.002 A 
HETATM   11  C   UNL     1       1.279  -0.725  -0.000  1.00  0.00    -0.014 A 
HETATM   12  C   UNL     1       1.292   0.699  -0.000  1.00  0.00    -0.014 A 
HETATM   13  C   UNL     1       2.456  -1.450   0.000  1.00  0.00     0.013 A 
HETATM   14  C   UNL     1       3.660  -0.739   0.001  1.00  0.00     0.001 A 
HETATM   15  C   UNL     1       2.482   1.403   0.000  1.00  0.00     0.013 A 
HETATM   16  C   UNL     1       3.673   0.670   0.001  1.00  0.00     0.001 A 
ENDROOT
TORSDOF 0
