REMARK  0 active torsions:
REMARK  status: ('A' for Active; 'I' for Inactive)
ROOT
HETATM    1  C   UNL     1       0.724  -0.452   0.000  1.00  0.00    -0.019 A 
HETATM    2  C   UNL     1      -0.724  -0.452   0.000  1.00  0.00    -0.019 A 
HETATM    3  C   UNL     1      -1.177   0.885   0.003  1.00  0.00    -0.043 A 
HETATM    4  C   UNL     1       1.177   0.885   0.002  1.00  0.00    -0.043 A 
HETATM    5  C   UNL     1       0.000   1.839   0.004  1.00  0.00     0.078 A 
HETATM    6  C   UNL     1       1.630  -1.499  -0.001  1.00  0.00     0.013 A 
HETATM    7  C   UNL     1      -1.629  -1.500  -0.001  1.00  0.00     0.013 A 
HETATM    8  C   UNL     1       2.528   1.193   0.003  1.00  0.00     0.008 A 
HETATM    9  C   UNL     1      -2.528   1.193   0.003  1.00  0.00     0.008 A 
HETATM   10  C   UNL     1      -2.995  -1.198  -0.001  1.00  0.00     0.001 A 
HETATM   11  C   UNL     1       2.996  -1.198  -0.001  1.00  0.00     0.001 A 
HETATM   12  C   UNL     1      -3.440   0.136   0.001  1.00  0.00     0.001 A 
HETATM   13  C   UNL     1       3.440   0.136   0.001  1.00  0.00     0.001 A 
ENDROOT
TORSDOF 0
