REMARK  6 active torsions:
REMARK  status: ('A' for Active; 'I' for Inactive)
REMARK    1  A    between atoms: C_3  and  C_27 
REMARK    2  A    between atoms: S_9  and  N_11 
REMARK       I    between atoms: N_11  and  C_13 
REMARK    3  A    between atoms: N_12  and  C_17 
REMARK    4  A    between atoms: C_13  and  C_16 
REMARK    5  A    between atoms: O_15  and  C_20 
REMARK    6  A    between atoms: O_15  and  C_22 
ROOT
HETATM    1  C   UNL     1       4.134  -0.288   1.558  1.00  0.00     0.068 C 
HETATM    2  C   UNL     1       2.998  -0.804   0.923  1.00  0.00     0.118 C 
HETATM    3  C   UNL     1       4.863  -1.167   2.381  1.00  0.00     0.056 C 
HETATM    4  C   UNL     1       2.554  -2.117   1.151  1.00  0.00     0.040 C 
HETATM    5  C   UNL     1       4.377  -2.440   2.710  1.00  0.00     0.077 C 
HETATM    6  C   UNL     1       3.234  -2.919   2.068  1.00  0.00     0.040 C 
ENDROOT
BRANCH   5   7
HETATM    7  O   UNL     1       4.936  -3.305   3.629  1.00  0.00    -0.309 OA
BRANCH   7   8
HETATM    8  C   UNL     1       5.957  -2.900   4.462  1.00  0.00     0.097 C 
HETATM    9  C   UNL     1       7.033  -3.776   4.653  1.00  0.00     0.068 C 
HETATM   10 CL   UNL     1       7.042  -5.354   3.955  1.00  0.00    -0.081 Cl
HETATM   11  C   UNL     1       8.138  -3.380   5.413  1.00  0.00     0.042 C 
HETATM   12  C   UNL     1       8.182  -2.105   5.996  1.00  0.00     0.049 C 
HETATM   13  C   UNL     1       7.061  -1.269   5.878  1.00  0.00     0.019 C 
HETATM   14  C   UNL     1       5.938  -1.685   5.157  1.00  0.00     0.040 C 
BRANCH  12  15
HETATM   15  C   UNL     1       9.431  -1.615   6.691  1.00  0.00     0.417 C 
HETATM   16  F   UNL     1      10.203  -0.860   5.863  1.00  0.00    -0.166 F 
HETATM   17  F   UNL     1       9.165  -0.836   7.774  1.00  0.00    -0.166 F 
HETATM   18  F   UNL     1      10.229  -2.623   7.136  1.00  0.00    -0.166 F 
ENDBRANCH  12  15
ENDBRANCH   7   8
ENDBRANCH   5   7
BRANCH   1  19
HETATM   19  C   UNL     1       4.512   1.158   1.450  1.00  0.00     0.267 C 
HETATM   20  O   UNL     1       3.964   1.905   0.666  1.00  0.00    -0.267 OA
HETATM   21  N   UNL     1       5.525   1.604   2.314  1.00  0.00    -0.250 N 
HETATM   22  H   UNL     1       5.983   1.034   3.012  1.00  0.00     0.181 HD
BRANCH  21  23
HETATM   23  S   UNL     1       6.012   3.186   2.477  1.00  0.00     0.229 S 
HETATM   24  C   UNL     1       6.726   3.546   0.885  1.00  0.00     0.186 C 
HETATM   25  O   UNL     1       4.857   4.017   2.715  1.00  0.00    -0.206 OA
HETATM   26  O   UNL     1       7.089   3.118   3.445  1.00  0.00    -0.206 OA
ENDBRANCH  21  23
ENDBRANCH   1  19
BRANCH   2  27
HETATM   27  N   UNL     1       2.251  -0.033  -0.047  1.00  0.00    -0.115 N 
HETATM   28  O   UNL     1       1.119   0.335   0.290  1.00  0.00    -0.532 OA
HETATM   29  O   UNL     1       2.761   0.089  -1.168  1.00  0.00    -0.532 OA
ENDBRANCH   2  27
TORSDOF 6
