REMARK  0 active torsions:
REMARK  status: ('A' for Active; 'I' for Inactive)
ROOT
HETATM    1  C   UNL     1       2.225   0.242  -0.247  1.00  0.00     0.059 C 
HETATM    2  C   UNL     1       0.927   0.349  -1.036  1.00  0.00     0.119 C 
HETATM    3  C   UNL     1       0.831  -1.551   0.156  1.00  0.00     0.120 C 
HETATM    4  C   UNL     1      -0.224  -0.652   0.875  1.00  0.00     0.057 A 
HETATM    5  C   UNL     1      -0.147   0.703   0.050  1.00  0.00     0.048 A 
HETATM    6  C   UNL     1       2.164  -0.886   0.469  1.00  0.00     0.059 C 
HETATM    7  C   UNL     1      -1.662  -1.063   0.819  1.00  0.00     0.159 A 
HETATM    8  C   UNL     1      -2.475  -0.029   0.119  1.00  0.00     0.170 A 
HETATM    9  C   UNL     1      -1.580   1.042  -0.423  1.00  0.00     0.120 A 
HETATM   10  C   UNL     1       0.718  -1.166  -1.350  1.00  0.00     0.166 C 
HETATM   11 CL   UNL     1       3.423   1.438  -0.209  1.00  0.00    -0.085 Cl
HETATM   12 CL   UNL     1       3.267  -1.445   1.626  1.00  0.00    -0.085 Cl
HETATM   13 CL   UNL     1       0.726  -3.263   0.523  1.00  0.00    -0.109 Cl
HETATM   14 CL   UNL     1       0.966   1.420  -2.425  1.00  0.00    -0.109 Cl
HETATM   15 CL   UNL     1       2.004  -1.897  -2.405  1.00  0.00    -0.097 Cl
HETATM   16 CL   UNL     1      -0.823  -1.592  -2.155  1.00  0.00    -0.097 Cl
HETATM   17 CL   UNL     1      -2.107   2.622   0.207  1.00  0.00    -0.122 Cl
HETATM   18  O   UNL     1      -2.528  -0.182   1.542  1.00  0.00    -0.373 OA
ENDROOT
TORSDOF 0
