REMARK  2 active torsions:
REMARK  status: ('A' for Active; 'I' for Inactive)
REMARK    1  A    between atoms: C_4  and  N_7 
REMARK    2  A    between atoms: N_5  and  C_10 
ROOT
HETATM    1  N   UNL     1      -0.831   0.935   0.083  1.00  0.00    -0.005 NA
HETATM    2  C   UNL     1       0.543  -1.388   0.295  1.00  0.00     0.347 C 
HETATM    3  N   UNL     1      -0.820  -1.373   0.045  1.00  0.00    -0.135 N 
HETATM    4  C   UNL     1      -1.487  -0.171  -0.050  1.00  0.00     0.712 C 
HETATM    5  N   UNL     1       1.208  -0.224   0.008  1.00  0.00    -0.244 N 
HETATM    6  C   UNL     1       0.507   0.917   0.336  1.00  0.00     0.368 C 
HETATM    7  O   UNL     1       1.083  -2.393   0.761  1.00  0.00    -0.246 OA
HETATM    8  O   UNL     1       1.051   1.894   0.844  1.00  0.00    -0.244 OA
HETATM    9  C   UNL     1      -1.471  -2.664  -0.089  1.00  0.00     0.180 C 
ENDROOT
BRANCH   5  10
HETATM   10  C   UNL     1       2.689  -0.123  -0.000  1.00  0.00     0.099 C 
HETATM   11  C   UNL     1       3.157   0.912  -1.062  1.00  0.00     0.026 C 
HETATM   12  C   UNL     1       2.912   0.417  -2.491  1.00  0.00     0.002 C 
HETATM   13  C   UNL     1       3.601  -0.918  -2.754  1.00  0.00     0.000 C 
HETATM   14  C   UNL     1       3.254  -1.959  -1.695  1.00  0.00     0.002 C 
HETATM   15  C   UNL     1       3.486  -1.418  -0.285  1.00  0.00     0.026 C 
ENDBRANCH   5  10
BRANCH   4  16
HETATM   16  N   UNL     1      -2.859  -0.114  -0.292  1.00  0.00    -0.224 N 
HETATM   17  C   UNL     1      -3.796  -0.841   0.567  1.00  0.00     0.168 C 
HETATM   18  C   UNL     1      -3.408   1.160  -0.776  1.00  0.00     0.168 C 
ENDBRANCH   4  16
TORSDOF 2
