REMARK  7 active torsions:
REMARK  status: ('A' for Active; 'I' for Inactive)
REMARK    1  A    between atoms: N_4  and  C_5 
REMARK    2  A    between atoms: C_5  and  C_6 
REMARK    3  A    between atoms: C_6  and  C_7 
REMARK    4  A    between atoms: C_7  and  C_8 
REMARK    5  A    between atoms: C_8  and  C_9 
REMARK    6  A    between atoms: C_9  and  C_10 
REMARK    7  A    between atoms: C_10  and  N_11 
ROOT
HETATM    1  O   UNL     1       1.193  -0.209  -0.046  1.00  0.00    -0.260 OA
HETATM    2  C   UNL     1       2.364  -0.117  -0.005  1.00  0.00     0.332 C 
HETATM    3  N   UNL     1       3.534  -0.036   0.030  1.00  0.00    -0.248 NA
ENDROOT
BRANCH   3   4
HETATM    4  C   UNL     1       4.218  -1.226  -0.493  1.00  0.00     0.153 C 
BRANCH   4   5
HETATM    5  C   UNL     1       5.726  -0.993  -0.391  1.00  0.00     0.022 C 
BRANCH   5   6
HETATM    6  C   UNL     1       6.515  -2.192  -0.917  1.00  0.00     0.002 C 
BRANCH   6   7
HETATM    7  C   UNL     1       8.023  -1.954  -0.813  1.00  0.00     0.002 C 
BRANCH   7   8
HETATM    8  C   UNL     1       8.812  -3.152  -1.340  1.00  0.00     0.022 C 
BRANCH   8   9
HETATM    9  C   UNL     1      10.320  -2.920  -1.237  1.00  0.00     0.153 C 
BRANCH   9  10
HETATM   10  N   UNL     1      11.004  -4.109  -1.760  1.00  0.00    -0.248 NA
HETATM   11  C   UNL     1      12.174  -4.029  -1.725  1.00  0.00     0.332 C 
HETATM   12  O   UNL     1      13.345  -3.936  -1.684  1.00  0.00    -0.260 OA
ENDBRANCH   9  10
ENDBRANCH   8   9
ENDBRANCH   7   8
ENDBRANCH   6   7
ENDBRANCH   5   6
ENDBRANCH   4   5
ENDBRANCH   3   4
TORSDOF 7
