REMARK  8 active torsions:
REMARK  status: ('A' for Active; 'I' for Inactive)
REMARK    1  A    between atoms: C_1  and  N_5 
REMARK    2  A    between atoms: C_2  and  N_4 
REMARK    3  A    between atoms: C_3  and  N_9 
REMARK    4  A    between atoms: C_8  and  C_14 
REMARK    5  A    between atoms: N_9  and  C_15 
REMARK    6  A    between atoms: N_9  and  C_16 
REMARK    7  A    between atoms: C_15  and  C_19 
REMARK    8  A    between atoms: C_16  and  C_20 
ROOT
HETATM    1  C   UNL     1      -0.640   1.067  -0.099  1.00  0.00     0.132 A 
HETATM    2  C   UNL     1      -0.470  -1.221   0.270  1.00  0.00     0.132 A 
HETATM    3  C   UNL     1      -1.396  -0.147   0.102  1.00  0.00     0.097 A 
HETATM    4  C   UNL     1       0.955  -1.140   0.117  1.00  0.00     0.046 A 
HETATM    5  C   UNL     1       0.788   1.164  -0.210  1.00  0.00     0.046 A 
HETATM    6  C   UNL     1       1.611   0.056  -0.102  1.00  0.00    -0.050 A 
ENDROOT
BRANCH   3   7
HETATM    7  N   UNL     1      -2.819  -0.255   0.210  1.00  0.00    -0.377 N 
BRANCH   7   8
HETATM    8  C   UNL     1      -3.686  -1.383  -0.300  1.00  0.00     0.123 C 
BRANCH   8   9
HETATM    9  C   UNL     1      -3.336  -2.851  -0.235  1.00  0.00     0.015 C 
HETATM   10  C   UNL     1      -4.542  -3.744  -0.524  1.00  0.00     0.006 C 
ENDBRANCH   8   9
ENDBRANCH   7   8
BRANCH   7  11
HETATM   11  C   UNL     1      -3.611   1.035   0.108  1.00  0.00     0.123 C 
BRANCH  11  12
HETATM   12  C   UNL     1      -5.144   0.964   0.241  1.00  0.00     0.015 C 
HETATM   13  C   UNL     1      -5.778   2.347   0.131  1.00  0.00     0.006 C 
ENDBRANCH  11  12
ENDBRANCH   7  11
ENDBRANCH   3   7
BRANCH   1  14
HETATM   14  N   UNL     1      -1.201   2.406  -0.106  1.00  0.00    -0.113 N 
HETATM   15  O   UNL     1      -1.183   3.024   0.973  1.00  0.00    -0.532 OA
HETATM   16  O   UNL     1      -1.550   2.873  -1.194  1.00  0.00    -0.532 OA
ENDBRANCH   1  14
BRANCH   2  17
HETATM   17  N   UNL     1      -0.789  -2.462   0.947  1.00  0.00    -0.113 N 
HETATM   18  O   UNL     1      -0.516  -3.514   0.343  1.00  0.00    -0.532 OA
HETATM   19  O   UNL     1      -1.168  -2.388   2.124  1.00  0.00    -0.532 OA
ENDBRANCH   2  17
BRANCH   6  20
HETATM   20  C   UNL     1       3.124   0.204  -0.077  1.00  0.00     0.010 C 
HETATM   21  C   UNL     1       3.568   0.897   1.221  1.00  0.00     0.015 C 
HETATM   22  C   UNL     1       3.904  -1.109  -0.225  1.00  0.00     0.015 C 
ENDBRANCH   6  20
TORSDOF 8
