REMARK  4 active torsions:
REMARK  status: ('A' for Active; 'I' for Inactive)
REMARK    1  A    between atoms: C_1  and  C_4 
REMARK    2  A    between atoms: C_5  and  C_10 
REMARK    3  A    between atoms: C_7  and  C_15 
REMARK    4  A    between atoms: C_10  and  O_16 
ROOT
HETATM    1  C   UNL     1       2.351   1.234  -0.331  1.00  0.00     0.120 A 
HETATM    2  C   UNL     1       3.606   0.660  -0.527  1.00  0.00     0.071 A 
HETATM    3  N   UNL     1       2.125   2.591  -0.287  1.00  0.00    -0.243 NA
HETATM    4  C   UNL     1       4.666   1.570  -0.691  1.00  0.00     0.034 A 
HETATM    5  C   UNL     1       3.166   3.430  -0.439  1.00  0.00     0.068 A 
HETATM    6  C   UNL     1       4.469   2.954  -0.656  1.00  0.00    -0.006 A 
HETATM    7  C   UNL     1       2.980   4.808  -0.389  1.00  0.00     0.032 A 
HETATM    8  C   UNL     1       5.540   3.845  -0.837  1.00  0.00     0.014 A 
HETATM    9  C   UNL     1       5.325   5.218  -0.796  1.00  0.00     0.001 A 
HETATM   10  C   UNL     1       4.043   5.702  -0.566  1.00  0.00     0.002 A 
ENDROOT
BRANCH   1  11
HETATM   11  C   UNL     1       1.091   0.476  -0.129  1.00  0.00     0.156 A 
HETATM   12  N   UNL     1       1.012  -0.803   0.058  1.00  0.00    -0.250 NA
HETATM   13  C   UNL     1      -0.449  -1.102   0.231  1.00  0.00     0.136 A 
HETATM   14  C   UNL     1      -1.111   0.262   0.031  1.00  0.00     0.253 A 
HETATM   15  C   UNL     1      -0.864  -2.049  -0.896  1.00  0.00     0.051 C 
HETATM   16  N   UNL     1      -0.086   1.139  -0.137  1.00  0.00    -0.308 N 
HETATM   17  O   UNL     1      -2.299   0.521   0.015  1.00  0.00    -0.270 OA
HETATM   18  H   UNL     1      -0.194   2.134  -0.280  1.00  0.00     0.170 HD
BRANCH  13  19
HETATM   19  C   UNL     1      -0.688  -1.689   1.646  1.00  0.00     0.017 C 
HETATM   20  C   UNL     1       0.167  -2.937   1.913  1.00  0.00     0.012 C 
HETATM   21  C   UNL     1      -0.436  -0.675   2.772  1.00  0.00     0.012 C 
ENDBRANCH  13  19
ENDBRANCH   1  11
BRANCH   2  22
HETATM   22  C   UNL     1       4.023  -0.775  -0.621  1.00  0.00     0.178 C 
HETATM   23  O   UNL     1       5.213  -1.059  -0.687  1.00  0.00    -0.646 OA
BRANCH  22  24
HETATM   24  O   UNL     1       3.111  -1.751  -0.715  1.00  0.00    -0.773 OA
HETATM   25  H   UNL     1       2.189  -1.530  -0.445  1.00  0.00     0.167 HD
ENDBRANCH  22  24
ENDBRANCH   2  22
TORSDOF 4
