REMARK  2 active torsions:
REMARK  status: ('A' for Active; 'I' for Inactive)
REMARK       I    between atoms: N_1  and  C_5 
REMARK    1  A    between atoms: N_3  and  C_6 
REMARK       I    between atoms: C_5  and  N_8 
REMARK    2  A    between atoms: N_8  and  C_19 
ROOT
HETATM    1  N   UNL     1      -0.707  -0.711  -0.023  1.00  0.00    -0.242 N 
HETATM    2  C   UNL     1       0.705  -0.772  -0.049  1.00  0.00     0.340 C 
HETATM    3  N   UNL     1       1.211   0.459   0.347  1.00  0.00    -0.232 N 
HETATM    4  C   UNL     1       0.173   1.289   0.679  1.00  0.00     0.251 C 
HETATM    5  C   UNL     1      -1.492  -1.704  -0.528  1.00  0.00     0.327 C 
HETATM    6  C   UNL     1      -1.117   0.534   0.555  1.00  0.00     0.242 C 
HETATM    7  N   UNL     1      -2.815  -1.530  -0.765  1.00  0.00    -0.339 N 
HETATM    8  O   UNL     1       1.371  -1.738  -0.401  1.00  0.00    -0.246 OA
HETATM    9  O   UNL     1       0.200   2.451   1.065  1.00  0.00    -0.271 OA
HETATM   10  O   UNL     1      -1.079  -2.837  -0.785  1.00  0.00    -0.247 OA
HETATM   11  H   UNL     1      -3.174  -2.384  -1.184  1.00  0.00     0.164 HD
ENDROOT
BRANCH   3  12
HETATM   12  C   UNL     1       2.594   0.822   0.396  1.00  0.00     0.050 A 
HETATM   13  C   UNL     1       3.612  -0.144   0.447  1.00  0.00     0.054 A 
HETATM   14  C   UNL     1       4.957   0.231   0.547  1.00  0.00     0.037 A 
HETATM   15 CL   UNL     1       6.175  -0.982   0.655  1.00  0.00    -0.084 Cl
HETATM   16  C   UNL     1       5.327   1.569   0.580  1.00  0.00     0.048 A 
HETATM   17  C   UNL     1       4.335   2.535   0.502  1.00  0.00     0.037 A 
HETATM   18  C   UNL     1       2.988   2.172   0.412  1.00  0.00     0.054 A 
HETATM   19 CL   UNL     1       4.768   4.202   0.519  1.00  0.00    -0.084 Cl
ENDBRANCH   3  12
BRANCH   7  20
HETATM   20  C   UNL     1      -3.725  -0.389  -0.805  1.00  0.00     0.078 C 
HETATM   21  C   UNL     1      -3.431   0.522  -1.998  1.00  0.00     0.032 C 
HETATM   22  C   UNL     1      -5.173  -0.877  -0.886  1.00  0.00     0.032 C 
ENDBRANCH   7  20
TORSDOF 2
