REMARK  7 active torsions:
REMARK  status: ('A' for Active; 'I' for Inactive)
REMARK    1  A    between atoms: C_1  and  C_5 
REMARK       I    between atoms: C_1  and  N_6 
REMARK    2  A    between atoms: C_2  and  N_6 
REMARK    3  A    between atoms: C_7  and  C_9 
REMARK    4  A    between atoms: C_9  and  C_16 
REMARK    5  A    between atoms: C_9  and  C_17 
REMARK    6  A    between atoms: C_11  and  O_14 
REMARK    7  A    between atoms: C_12  and  O_13 
ROOT
HETATM    1  C   UNL     1       1.036  -0.291  -0.208  1.00  0.00     0.263 C 
HETATM    2  N   UNL     1       0.284  -1.196  -0.916  1.00  0.00    -0.301 N 
HETATM    3  O   UNL     1       2.241  -0.503  -0.029  1.00  0.00    -0.267 OA
HETATM    4  H   UNL     1       0.684  -2.125  -0.871  1.00  0.00     0.171 HD
ENDROOT
BRANCH   2   5
HETATM    5  C   UNL     1      -1.077  -1.136  -1.041  1.00  0.00     0.177 C 
HETATM    6  C   UNL     1      -1.958  -0.236  -1.585  1.00  0.00     0.088 C 
HETATM    7  C   UNL     1      -3.216  -0.897  -1.510  1.00  0.00     0.074 C 
HETATM    8  N   UNL     1      -3.101  -2.039  -0.815  1.00  0.00    -0.130 NA
HETATM    9  O   UNL     1      -1.754  -2.225  -0.608  1.00  0.00    -0.195 OA
BRANCH   7  10
HETATM   10  C   UNL     1      -4.551  -0.528  -2.144  1.00  0.00     0.002 C 
HETATM   11  C   UNL     1      -4.320   0.223  -3.483  1.00  0.00     0.022 C 
BRANCH  10  12
HETATM   12  C   UNL     1      -5.407  -1.805  -2.447  1.00  0.00     0.011 C 
HETATM   13  C   UNL     1      -4.773  -2.811  -3.412  1.00  0.00     0.006 C 
ENDBRANCH  10  12
BRANCH  10  14
HETATM   14  C   UNL     1      -5.352   0.448  -1.229  1.00  0.00     0.011 C 
HETATM   15  C   UNL     1      -5.774  -0.091   0.134  1.00  0.00     0.006 C 
ENDBRANCH  10  14
ENDBRANCH   7  10
ENDBRANCH   2   5
BRANCH   1  16
HETATM   16  C   UNL     1       0.421   0.852   0.477  1.00  0.00     0.099 A 
HETATM   17  C   UNL     1      -0.343   0.606   1.642  1.00  0.00     0.086 A 
HETATM   18  C   UNL     1      -0.880   1.671   2.370  1.00  0.00     0.038 A 
HETATM   19  C   UNL     1      -0.617   2.981   1.987  1.00  0.00     0.005 A 
HETATM   20  C   UNL     1       0.163   3.226   0.858  1.00  0.00     0.038 A 
HETATM   21  C   UNL     1       0.681   2.175   0.083  1.00  0.00     0.086 A 
BRANCH  17  22
HETATM   22  O   UNL     1      -0.706  -0.632   2.112  1.00  0.00    -0.355 OA
HETATM   23  C   UNL     1       0.379  -1.494   2.453  1.00  0.00     0.210 C 
ENDBRANCH  17  22
BRANCH  21  24
HETATM   24  O   UNL     1       1.428   2.636  -0.967  1.00  0.00    -0.355 OA
HETATM   25  C   UNL     1       1.562   1.829  -2.127  1.00  0.00     0.210 C 
ENDBRANCH  21  24
ENDBRANCH   1  16
TORSDOF 7
