REMARK  6 active torsions:
REMARK  status: ('A' for Active; 'I' for Inactive)
REMARK    1  A    between atoms: C_1  and  C_5 
REMARK    2  A    between atoms: N_3  and  C_9 
REMARK    3  A    between atoms: C_5  and  C_9 
REMARK    4  A    between atoms: C_5  and  O_17 
REMARK    5  A    between atoms: C_13  and  C_19 
REMARK    6  A    between atoms: O_17  and  C_19 
ROOT
HETATM    1  C   UNL     1      -1.289  -2.616  -0.077  1.00  0.00     0.174 C 
ENDROOT
BRANCH   1   2
HETATM    2  C   UNL     1      -0.722  -1.196  -0.187  1.00  0.00    -0.006 A 
HETATM    3  C   UNL     1      -1.403  -0.017   0.181  1.00  0.00     0.044 A 
HETATM    4  C   UNL     1      -0.763   1.230   0.124  1.00  0.00     0.048 A 
HETATM    5 CL   UNL     1      -3.025   0.008   0.779  1.00  0.00    -0.084 Cl
HETATM    6  C   UNL     1       0.570   1.316  -0.259  1.00  0.00     0.035 A 
HETATM    7  C   UNL     1       1.268   0.172  -0.622  1.00  0.00     0.024 A 
HETATM    8 CL   UNL     1       1.365   2.841  -0.254  1.00  0.00    -0.084 Cl
HETATM    9  C   UNL     1       0.622  -1.067  -0.608  1.00  0.00     0.013 A 
ENDBRANCH   1   2
BRANCH   1  10
HETATM   10  C   UNL     1      -0.980  -3.227   1.307  1.00  0.00     0.166 C 
BRANCH  10  11
HETATM   11  N   UNL     1       0.409  -3.609   1.477  1.00  0.00    -0.347 N 
HETATM   12  C   UNL     1       1.381  -2.858   2.076  1.00  0.00     0.209 A 
HETATM   13  N   UNL     1       2.543  -3.469   2.046  1.00  0.00    -0.255 NA
HETATM   14  C   UNL     1       2.304  -4.676   1.444  1.00  0.00     0.135 A 
HETATM   15  C   UNL     1       0.981  -4.787   1.084  1.00  0.00     0.111 A 
ENDBRANCH  10  11
ENDBRANCH   1  10
BRANCH   1  16
HETATM   16  O   UNL     1      -2.697  -2.603  -0.317  1.00  0.00    -0.376 OA
BRANCH  16  17
HETATM   17  C   UNL     1      -3.257  -3.833  -0.761  1.00  0.00     0.195 C 
BRANCH  17  18
HETATM   18  C   UNL     1      -4.732  -3.614  -0.887  1.00  0.00    -0.011 C 
HETATM   19  C   UNL     1      -5.656  -4.582  -0.837  1.00  0.00     0.009 C 
ENDBRANCH  17  18
ENDBRANCH  16  17
ENDBRANCH   1  16
TORSDOF 6
