REMARK  2 active torsions:
REMARK  status: ('A' for Active; 'I' for Inactive)
REMARK       I    between atoms: C_1  and  N_2 
REMARK       I    between atoms: C_1  and  N_4 
REMARK    1  A    between atoms: N_2  and  C_6 
REMARK    2  A    between atoms: N_4  and  O_13 
ROOT
HETATM    1  C   UNL     1       0.836  -4.394  -2.315  1.00  0.00     0.058 A 
HETATM    2  C   UNL     1       0.535  -3.394  -1.380  1.00  0.00     0.055 A 
HETATM    3  C   UNL     1       1.025  -2.092  -1.542  1.00  0.00     0.037 A 
HETATM    4  C   UNL     1       1.627  -4.095  -3.427  1.00  0.00     0.055 A 
HETATM    5  C   UNL     1       2.107  -2.797  -3.599  1.00  0.00     0.028 A 
HETATM    6 CL   UNL     1       0.195  -5.974  -2.030  1.00  0.00    -0.082 Cl
HETATM    7  C   UNL     1       1.804  -1.800  -2.664  1.00  0.00     0.031 A 
HETATM    8 CL   UNL     1       2.040  -5.275  -4.617  1.00  0.00    -0.083 Cl
ENDROOT
BRANCH   3   9
HETATM    9  N   UNL     1       0.679  -1.144  -0.559  1.00  0.00    -0.312 N 
HETATM   10  C   UNL     1       1.189   0.138  -0.406  1.00  0.00     0.324 C 
HETATM   11  N   UNL     1       0.549   0.846   0.636  1.00  0.00    -0.115 NA
HETATM   12  O   UNL     1       2.129   0.594  -1.050  1.00  0.00    -0.251 OA
HETATM   13  C   UNL     1      -0.900   0.882   0.720  1.00  0.00     0.155 C 
HETATM   14  H   UNL     1       0.136  -1.480   0.222  1.00  0.00     0.170 HD
BRANCH  11  15
HETATM   15  O   UNL     1       1.011   2.200   0.670  1.00  0.00    -0.300 OA
HETATM   16  C   UNL     1       1.961   2.318   1.726  1.00  0.00     0.230 C 
ENDBRANCH  11  15
ENDBRANCH   3   9
TORSDOF 2
