REMARK  8 active torsions:
REMARK  status: ('A' for Active; 'I' for Inactive)
REMARK    1  A    between atoms: C_1  and  C_4 
REMARK    2  A    between atoms: C_2  and  C_5 
REMARK    3  A    between atoms: C_4  and  O_8 
REMARK    4  A    between atoms: C_5  and  S_10 
REMARK    5  A    between atoms: S_10  and  N_13 
REMARK       I    between atoms: N_13  and  C_16 
REMARK       I    between atoms: C_16  and  N_17 
REMARK    6  A    between atoms: N_17  and  C_19 
REMARK    7  A    between atoms: C_22  and  O_25 
REMARK    8  A    between atoms: C_23  and  O_26 
ROOT
HETATM    1  N   UNL     1      -3.225  -2.235   2.393  1.00  0.00    -0.235 N 
HETATM    2  C   UNL     1      -3.297  -3.441   3.076  1.00  0.00     0.348 C 
HETATM    3  N   UNL     1      -3.100  -4.686   2.596  1.00  0.00    -0.137 N 
HETATM    4  O   UNL     1      -3.616  -3.356   4.263  1.00  0.00    -0.245 OA
HETATM    5  H   UNL     1      -3.518  -1.452   2.975  1.00  0.00     0.183 HD
HETATM    6  H   UNL     1      -3.442  -5.398   3.222  1.00  0.00     0.189 HD
ENDROOT
BRANCH   1   7
HETATM    7  S   UNL     1      -3.351  -1.810   0.806  1.00  0.00     0.238 S 
HETATM    8  O   UNL     1      -3.913  -0.474   0.870  1.00  0.00    -0.205 OA
HETATM    9  O   UNL     1      -4.037  -2.861   0.093  1.00  0.00    -0.205 OA
BRANCH   7  10
HETATM   10  C   UNL     1      -1.643  -1.743   0.293  1.00  0.00     0.203 C 
BRANCH  10  11
HETATM   11  C   UNL     1      -0.970  -0.415   0.055  1.00  0.00    -0.026 A 
HETATM   12  C   UNL     1      -1.438   0.674  -0.705  1.00  0.00     0.046 A 
HETATM   13  C   UNL     1      -0.615   1.808  -0.882  1.00  0.00     0.018 A 
HETATM   14  C   UNL     1       0.686   1.847  -0.385  1.00  0.00     0.001 A 
HETATM   15  C   UNL     1       1.185   0.756   0.308  1.00  0.00     0.001 A 
HETATM   16  C   UNL     1       0.367  -0.351   0.527  1.00  0.00     0.009 A 
BRANCH  12  17
HETATM   17  C   UNL     1      -2.759   0.771  -1.387  1.00  0.00     0.293 C 
HETATM   18  O   UNL     1      -3.405   1.810  -1.360  1.00  0.00    -0.259 OA
BRANCH  17  19
HETATM   19  O   UNL     1      -3.189  -0.341  -2.029  1.00  0.00    -0.323 OA
HETATM   20  C   UNL     1      -2.319  -0.991  -2.962  1.00  0.00     0.213 C 
ENDBRANCH  17  19
ENDBRANCH  12  17
ENDBRANCH  10  11
ENDBRANCH   7  10
ENDBRANCH   1   7
BRANCH   3  21
HETATM   21  C   UNL     1      -2.522  -5.227   1.472  1.00  0.00     0.735 A 
HETATM   22  N   UNL     1      -2.803  -6.523   1.313  1.00  0.00    -0.038 NA
HETATM   23  C   UNL     1      -2.311  -7.116   0.215  1.00  0.00     0.187 A 
HETATM   24  C   UNL     1      -1.507  -6.491  -0.698  1.00  0.00     0.117 A 
HETATM   25  C   UNL     1      -1.209  -5.188  -0.398  1.00  0.00     0.187 A 
HETATM   26  N   UNL     1      -1.695  -4.545   0.684  1.00  0.00    -0.038 NA
BRANCH  23  27
HETATM   27  O   UNL     1      -2.621  -8.436  -0.043  1.00  0.00    -0.339 OA
HETATM   28  C   UNL     1      -3.336  -9.057   1.023  1.00  0.00     0.211 C 
ENDBRANCH  23  27
BRANCH  25  29
HETATM   29  O   UNL     1      -0.336  -4.431  -1.135  1.00  0.00    -0.339 OA
HETATM   30  C   UNL     1      -0.431  -4.610  -2.545  1.00  0.00     0.211 C 
ENDBRANCH  25  29
ENDBRANCH   3  21
TORSDOF 8
