REMARK  10 active torsions:
REMARK  status: ('A' for Active; 'I' for Inactive)
REMARK    1  A    between atoms: C_1  and  C_3 
REMARK    2  A    between atoms: C_1  and  O_4 
REMARK    3  A    between atoms: O_4  and  C_25 
REMARK    4  A    between atoms: C_5  and  N_22 
REMARK    5  A    between atoms: C_8  and  O_10 
REMARK    6  A    between atoms: O_10  and  C_11 
REMARK    7  A    between atoms: C_16  and  C_18 
REMARK    8  A    between atoms: C_25  and  C_26 
REMARK    9  A    between atoms: C_26  and  O_27 
REMARK   10  A    between atoms: O_27  and  C_28 
ROOT
HETATM    1  C   UNL     1       0.359   1.365  -0.071  1.00  0.00     0.075 C 
HETATM    2  C   UNL     1       0.923   2.640  -0.014  1.00  0.00     0.119 C 
HETATM    3  C   UNL     1      -1.037   1.259   0.079  1.00  0.00     0.057 C 
HETATM    4  C   UNL     1       0.139   3.770   0.268  1.00  0.00     0.040 C 
HETATM    5  C   UNL     1      -1.825   2.352   0.447  1.00  0.00     0.077 C 
HETATM    6  C   UNL     1      -1.226   3.613   0.526  1.00  0.00     0.040 C 
ENDROOT
BRANCH   5   7
HETATM    7  O   UNL     1      -3.162   2.320   0.782  1.00  0.00    -0.309 OA
BRANCH   7   8
HETATM    8  C   UNL     1      -3.898   1.159   0.701  1.00  0.00     0.097 C 
HETATM    9  C   UNL     1      -5.141   1.211   0.060  1.00  0.00     0.068 C 
HETATM   10  C   UNL     1      -5.909   0.052  -0.093  1.00  0.00     0.042 C 
HETATM   11 CL   UNL     1      -5.771   2.696  -0.558  1.00  0.00    -0.081 Cl
HETATM   12  C   UNL     1      -5.447  -1.179   0.397  1.00  0.00     0.049 C 
HETATM   13  C   UNL     1      -4.237  -1.210   1.104  1.00  0.00     0.019 C 
HETATM   14  C   UNL     1      -3.497  -0.041   1.299  1.00  0.00     0.040 C 
BRANCH  12  15
HETATM   15  C   UNL     1      -6.211  -2.453   0.127  1.00  0.00     0.417 C 
HETATM   16  F   UNL     1      -5.797  -3.066  -1.015  1.00  0.00    -0.166 F 
HETATM   17  F   UNL     1      -6.077  -3.375   1.120  1.00  0.00    -0.166 F 
HETATM   18  F   UNL     1      -7.550  -2.252  -0.018  1.00  0.00    -0.166 F 
ENDBRANCH  12  15
ENDBRANCH   7   8
ENDBRANCH   5   7
BRANCH   1  19
HETATM   19  C   UNL     1       1.073   0.060  -0.139  1.00  0.00     0.296 C 
HETATM   20  O   UNL     1       0.485  -1.005  -0.027  1.00  0.00    -0.259 OA
BRANCH  19  21
HETATM   21  O   UNL     1       2.410   0.196  -0.223  1.00  0.00    -0.302 OA
BRANCH  21  22
HETATM   22  C   UNL     1       3.142  -1.040  -0.359  1.00  0.00     0.227 C 
HETATM   23  C   UNL     1       4.495  -0.799   0.291  1.00  0.00     0.051 C 
BRANCH  22  24
HETATM   24  C   UNL     1       3.151  -1.457  -1.843  1.00  0.00     0.288 C 
HETATM   25  O   UNL     1       2.243  -1.200  -2.628  1.00  0.00    -0.262 OA
BRANCH  24  26
HETATM   26  O   UNL     1       4.175  -2.279  -2.194  1.00  0.00    -0.320 OA
BRANCH  26  27
HETATM   27  C   UNL     1       5.404  -1.603  -2.489  1.00  0.00     0.174 C 
HETATM   28  C   UNL     1       5.883  -1.968  -3.878  1.00  0.00     0.034 C 
ENDBRANCH  26  27
ENDBRANCH  24  26
ENDBRANCH  22  24
ENDBRANCH  21  22
ENDBRANCH  19  21
ENDBRANCH   1  19
BRANCH   2  29
HETATM   29  N   UNL     1       2.330   2.866  -0.256  1.00  0.00    -0.115 N 
HETATM   30  O   UNL     1       3.004   3.264   0.703  1.00  0.00    -0.532 OA
HETATM   31  O   UNL     1       2.738   2.706  -1.413  1.00  0.00    -0.532 OA
ENDBRANCH   2  29
TORSDOF 10
