REMARK  12 active torsions:
REMARK  status: ('A' for Active; 'I' for Inactive)
REMARK    1  A    between atoms: P_1  and  S_2 
REMARK    2  A    between atoms: P_1  and  S_3 
REMARK    3  A    between atoms: P_1  and  S_4 
REMARK    4  A    between atoms: S_2  and  C_5 
REMARK    5  A    between atoms: S_3  and  C_7 
REMARK    6  A    between atoms: S_4  and  C_6 
REMARK    7  A    between atoms: C_5  and  C_9 
REMARK    8  A    between atoms: C_6  and  C_12 
REMARK    9  A    between atoms: C_7  and  C_15 
REMARK   10  A    between atoms: C_9  and  C_10 
REMARK   11  A    between atoms: C_12  and  C_13 
REMARK   12  A    between atoms: C_15  and  C_16 
ROOT
HETATM    1  P   UNL     1       0.932  -0.055   0.048  1.00  0.00     0.243 P 
HETATM    2  O   UNL     1       2.480  -0.055   0.048  1.00  0.00    -0.287 OA
ENDROOT
BRANCH   1   3
HETATM    3  S   UNL     1       0.899   2.127   0.223  1.00  0.00    -0.080 SA
BRANCH   3   4
HETATM    4  C   UNL     1       0.990   2.352   2.020  1.00  0.00     0.083 C 
BRANCH   4   5
HETATM    5  C   UNL     1       0.952   3.833   2.383  1.00  0.00     0.010 C 
BRANCH   5   6
HETATM    6  C   UNL     1       0.966   4.022   3.902  1.00  0.00    -0.004 C 
HETATM    7  C   UNL     1       0.944   5.493   4.283  1.00  0.00     0.005 C 
ENDBRANCH   5   6
ENDBRANCH   4   5
ENDBRANCH   3   4
ENDBRANCH   1   3
BRANCH   1   8
HETATM    8  S   UNL     1       0.856  -0.481  -2.114  1.00  0.00    -0.080 SA
BRANCH   8   9
HETATM    9  C   UNL     1       2.560  -0.852  -2.611  1.00  0.00     0.083 C 
BRANCH   9  10
HETATM   10  C   UNL     1       2.598  -1.349  -4.054  1.00  0.00     0.010 C 
BRANCH  10  11
HETATM   11  C   UNL     1       4.036  -1.633  -4.493  1.00  0.00    -0.004 C 
HETATM   12  C   UNL     1       4.092  -2.164  -5.917  1.00  0.00     0.005 C 
ENDBRANCH  10  11
ENDBRANCH   9  10
ENDBRANCH   8   9
ENDBRANCH   1   8
BRANCH   1  13
HETATM   13  S   UNL     1      -1.188  -0.055   0.048  1.00  0.00    -0.080 SA
BRANCH  13  14
HETATM   14  C   UNL     1      -1.701  -1.084   1.439  1.00  0.00     0.083 C 
BRANCH  14  15
HETATM   15  C   UNL     1      -3.228  -1.116   1.487  1.00  0.00     0.010 C 
BRANCH  15  16
HETATM   16  C   UNL     1      -3.741  -1.971   2.645  1.00  0.00    -0.004 C 
HETATM   17  C   UNL     1      -5.263  -1.994   2.678  1.00  0.00     0.005 C 
ENDBRANCH  15  16
ENDBRANCH  14  15
ENDBRANCH  13  14
ENDBRANCH   1  13
TORSDOF 12
