REMARK  6 active torsions:
REMARK  status: ('A' for Active; 'I' for Inactive)
REMARK    1  A    between atoms: N_1  and  C_2 
REMARK       I    between atoms: N_1  and  C_3 
REMARK    2  A    between atoms: N_1  and  C_4 
REMARK    3  A    between atoms: C_3  and  C_11 
REMARK    4  A    between atoms: C_4  and  C_5 
REMARK    5  A    between atoms: C_5  and  O_10 
REMARK    6  A    between atoms: C_11  and  O_13 
ROOT
HETATM    1  N   UNL     1       0.928   0.046  -0.079  1.00  0.00    -0.301 N 
HETATM    2  C   UNL     1       0.309   1.311  -0.173  1.00  0.00     0.248 C 
HETATM    3  O   UNL     1       0.952   2.353   0.003  1.00  0.00    -0.271 OA
ENDROOT
BRANCH   1   4
HETATM    4  C   UNL     1       0.221  -1.205   0.117  1.00  0.00     0.050 A 
HETATM    5  C   UNL     1       0.577  -2.374  -0.618  1.00  0.00    -0.035 A 
HETATM    6  C   UNL     1      -0.014  -3.621  -0.312  1.00  0.00     0.009 A 
HETATM    7  C   UNL     1       1.572  -2.432  -1.747  1.00  0.00     0.050 C 
HETATM    8  C   UNL     1      -1.016  -3.733   0.634  1.00  0.00     0.001 A 
HETATM    9  C   UNL     1      -1.419  -2.600   1.316  1.00  0.00     0.009 A 
HETATM   10  C   UNL     1      -0.790  -1.349   1.114  1.00  0.00    -0.035 A 
HETATM   11  C   UNL     1      -1.254  -0.292   2.083  1.00  0.00     0.050 C 
ENDBRANCH   1   4
BRANCH   1  12
HETATM   12  C   UNL     1       2.424   0.090   0.066  1.00  0.00     0.188 C 
HETATM   13  C   UNL     1       3.116   0.691  -1.182  1.00  0.00     0.043 C 
BRANCH  12  14
HETATM   14  C   UNL     1       3.227  -1.135   0.560  1.00  0.00     0.281 C 
HETATM   15  O   UNL     1       4.322  -1.466   0.123  1.00  0.00    -0.263 OA
BRANCH  14  16
HETATM   16  O   UNL     1       2.619  -1.755   1.612  1.00  0.00    -0.325 OA
HETATM   17  C   UNL     1       3.245  -2.977   2.007  1.00  0.00     0.213 C 
ENDBRANCH  14  16
ENDBRANCH  12  14
ENDBRANCH   1  12
BRANCH   2  18
HETATM   18  C   UNL     1      -1.187   1.401  -0.532  1.00  0.00     0.270 C 
BRANCH  18  19
HETATM   19  O   UNL     1      -1.545   2.596  -1.227  1.00  0.00    -0.387 OA
HETATM   20  C   UNL     1      -2.918   2.920  -1.034  1.00  0.00     0.202 C 
ENDBRANCH  18  19
ENDBRANCH   2  18
TORSDOF 6
