REMARK  0 active torsions:
REMARK  status: ('A' for Active; 'I' for Inactive)
ROOT
HETATM    1  N   UNL     1       1.522  -0.001  -0.111  1.00  0.00    -0.075 N 
HETATM    2  C   UNL     1       1.871  -0.004  -1.599  1.00  0.00     0.272 C 
HETATM    3  C   UNL     1       2.844  -0.002   0.667  1.00  0.00     0.272 C 
HETATM    4  C   UNL     1       0.744   1.263   0.275  1.00  0.00     0.236 C 
HETATM    5  C   UNL     1       0.740  -1.261   0.280  1.00  0.00     0.236 C 
HETATM    6  C   UNL     1      -0.670  -1.255  -0.296  1.00  0.00     0.028 C 
HETATM    7  C   UNL     1      -0.666   1.260  -0.301  1.00  0.00     0.028 C 
HETATM    8  C   UNL     1      -1.435   0.004   0.087  1.00  0.00     0.003 C 
ENDROOT
TORSDOF 0
