REMARK  3 active torsions:
REMARK  status: ('A' for Active; 'I' for Inactive)
REMARK    1  A    between atoms: P_1  and  S_3 
REMARK    2  A    between atoms: P_1  and  N_4 
REMARK    3  A    between atoms: P_1  and  O_5 
ROOT
HETATM    1  P   UNL     1       0.914   0.047  -0.018  1.00  0.00     0.324 P 
HETATM    2  O   UNL     1       0.850   1.486   0.503  1.00  0.00    -0.261 OA
ENDROOT
BRANCH   1   3
HETATM    3  S   UNL     1       0.767   0.192  -2.176  1.00  0.00    -0.062 SA
HETATM    4  C   UNL     1       2.439   0.026  -2.819  1.00  0.00     0.101 C 
ENDBRANCH   1   3
BRANCH   1   5
HETATM    5  N   UNL     1      -0.866   0.047  -0.018  1.00  0.00    -0.251 NA
HETATM    6  H   UNL     1      -1.104   0.459  -0.919  1.00  0.00     0.128 HD
HETATM    7  H   UNL     1      -1.071   0.800   0.638  1.00  0.00     0.128 HD
ENDBRANCH   1   5
BRANCH   1   8
HETATM    8  O   UNL     1       2.644   0.047  -0.018  1.00  0.00    -0.320 OA
HETATM    9  C   UNL     1       3.207  -0.199   1.258  1.00  0.00     0.212 C 
ENDBRANCH   1   8
TORSDOF 3
