REMARK  3 active torsions:
REMARK  status: ('A' for Active; 'I' for Inactive)
REMARK    1  A    between atoms: O_2  and  C_3 
REMARK    2  A    between atoms: C_3  and  C_4 
REMARK    3  A    between atoms: C_4  and  O_5 
ROOT
HETATM    1  C   UNL     1       2.924   1.091  -0.943  1.00  0.00     0.193 C 
ENDROOT
BRANCH   1   2
HETATM    2  O   UNL     1       2.447   0.084  -0.053  1.00  0.00    -0.394 OA
HETATM    3  C   UNL     1       1.027   0.068   0.005  1.00  0.00     0.201 C 
ENDBRANCH   1   2
BRANCH   1   4
HETATM    4  C   UNL     1       4.449   1.085  -0.945  1.00  0.00     0.190 C 
BRANCH   4   5
HETATM    5  O   UNL     1       4.960   2.039  -1.869  1.00  0.00    -0.399 OA
HETATM    6  H   UNL     1       4.765   1.709  -2.762  1.00  0.00     0.209 HD
ENDBRANCH   4   5
ENDBRANCH   1   4
TORSDOF 3
