REMARK  4 active torsions:
REMARK  status: ('A' for Active; 'I' for Inactive)
REMARK    1  A    between atoms: C_2  and  C_8 
REMARK    2  A    between atoms: C_2  and  O_10 
REMARK    3  A    between atoms: C_3  and  O_4 
REMARK    4  A    between atoms: O_4  and  C_8 
ROOT
HETATM    1  C   UNL     1      -1.508   0.014  -0.121  1.00  0.00    -0.027 A 
HETATM    2  C   UNL     1      -0.824  -1.212  -0.083  1.00  0.00     0.075 A 
HETATM    3  C   UNL     1      -0.738   1.206  -0.090  1.00  0.00     0.033 A 
HETATM    4  C   UNL     1       0.586  -1.207  -0.026  1.00  0.00     0.039 A 
HETATM    5  C   UNL     1       0.654   1.185  -0.033  1.00  0.00     0.034 A 
HETATM    6  C   UNL     1       1.324  -0.024  -0.003  1.00  0.00     0.026 A 
HETATM    7 CL   UNL     1       1.534   2.662   0.011  1.00  0.00    -0.084 Cl
HETATM    8  C   UNL     1      -2.991   0.257  -0.128  1.00  0.00     0.051 C 
ENDROOT
BRANCH   2   9
HETATM    9  O   UNL     1      -1.286  -2.496  -0.067  1.00  0.00    -0.340 OA
BRANCH   9  10
HETATM   10  C   UNL     1      -2.636  -2.799  -0.330  1.00  0.00     0.285 C 
BRANCH  10  11
HETATM   11  C   UNL     1      -2.864  -4.302  -0.473  1.00  0.00     0.164 C 
HETATM   12  O   UNL     1      -2.001  -5.165  -0.432  1.00  0.00    -0.648 OA
BRANCH  11  13
HETATM   13  O   UNL     1      -4.173  -4.612  -0.667  1.00  0.00    -0.775 OA
HETATM   14  H   UNL     1      -4.776  -3.845  -0.680  1.00  0.00     0.167 HD
ENDBRANCH  11  13
ENDBRANCH  10  11
ENDBRANCH   9  10
ENDBRANCH   2   9
TORSDOF 4
