REMARK  3 active torsions:
REMARK  status: ('A' for Active; 'I' for Inactive)
REMARK    1  A    between atoms: N_1  and  N_9 
REMARK    2  A    between atoms: C_3  and  C_7 
REMARK    3  A    between atoms: C_4  and  S_10 
ROOT
HETATM    1  N   UNL     1      -0.751   1.333  -0.098  1.00  0.00    -0.218 N 
HETATM    2  C   UNL     1      -1.525   0.182  -0.006  1.00  0.00     0.291 A 
HETATM    3  C   UNL     1      -0.742  -1.118   0.036  1.00  0.00     0.133 A 
HETATM    4  C   UNL     1       0.629   1.243  -0.087  1.00  0.00     0.207 A 
HETATM    5  N   UNL     1       0.555  -1.100   0.066  1.00  0.00    -0.146 NA
HETATM    6  N   UNL     1       1.245   0.106   0.011  1.00  0.00    -0.122 NA
HETATM    7  O   UNL     1      -2.749   0.210   0.049  1.00  0.00    -0.264 OA
ENDROOT
BRANCH   3   8
HETATM    8  C   UNL     1      -1.450  -2.494   0.028  1.00  0.00     0.001 C 
HETATM    9  C   UNL     1      -0.981  -3.249  -1.232  1.00  0.00     0.021 C 
HETATM   10  C   UNL     1      -0.995  -3.271   1.278  1.00  0.00     0.021 C 
HETATM   11  C   UNL     1      -2.983  -2.480   0.017  1.00  0.00     0.021 C 
ENDBRANCH   3   8
BRANCH   1  12
HETATM   12  N   UNL     1      -1.482   2.565  -0.161  1.00  0.00    -0.238 NA
HETATM   13  H   UNL     1      -2.413   2.328  -0.530  1.00  0.00     0.143 HD
HETATM   14  H   UNL     1      -1.675   2.834   0.807  1.00  0.00     0.143 HD
ENDBRANCH   1  12
BRANCH   4  15
HETATM   15  S   UNL     1       1.726   2.607  -0.235  1.00  0.00    -0.093 SA
HETATM   16  C   UNL     1       0.823   4.132  -0.029  1.00  0.00     0.099 C 
ENDBRANCH   4  15
TORSDOF 3
