REMARK  2 active torsions:
REMARK  status: ('A' for Active; 'I' for Inactive)
REMARK       I    between atoms: N_1  and  C_8 
REMARK    1  A    between atoms: C_8  and  S_10 
REMARK    2  A    between atoms: S_10  and  C_11 
ROOT
HETATM    1  N   UNL     1      -1.477   0.846   0.124  1.00  0.00    -0.343 N 
HETATM    2  C   UNL     1      -0.314   1.509  -0.479  1.00  0.00     0.126 C 
HETATM    3  C   UNL     1       0.937   1.294   0.367  1.00  0.00     0.020 C 
HETATM    4  C   UNL     1       1.703   0.015   0.028  1.00  0.00     0.002 C 
HETATM    5  C   UNL     1       0.873  -1.213  -0.348  1.00  0.00     0.002 C 
HETATM    6  C   UNL     1      -0.412  -1.402   0.457  1.00  0.00     0.020 C 
HETATM    7  C   UNL     1      -1.592  -0.594  -0.095  1.00  0.00     0.126 C 
HETATM    8  C   UNL     1      -2.421   1.460   0.950  1.00  0.00     0.281 C 
HETATM    9  O   UNL     1      -3.373   0.869   1.448  1.00  0.00    -0.260 OA
ENDROOT
BRANCH   8  10
HETATM   10  S   UNL     1      -2.189   3.176   1.274  1.00  0.00    -0.070 SA
BRANCH  10  11
HETATM   11  C   UNL     1      -3.730   3.544   2.157  1.00  0.00     0.079 C 
HETATM   12  C   UNL     1      -3.794   5.029   2.474  1.00  0.00     0.016 C 
ENDBRANCH  10  11
ENDBRANCH   8  10
TORSDOF 2
