REMARK  1 active torsions:
REMARK  status: ('A' for Active; 'I' for Inactive)
REMARK    1  A    between atoms: C_1  and  C_3 
ROOT
HETATM    1  N   UNL     1       1.177   2.396  -0.287  1.00  0.00    -0.237 NA
HETATM    2  C   UNL     1       0.494   1.365   0.289  1.00  0.00     0.090 A 
HETATM    3  C   UNL     1       0.735   3.654  -0.081  1.00  0.00     0.126 A 
HETATM    4 CL   UNL     1       1.663   4.871  -0.851  1.00  0.00    -0.062 Cl
HETATM    5  C   UNL     1      -0.660   1.617   1.044  1.00  0.00     0.032 A 
HETATM    6  C   UNL     1      -1.087   2.932   1.246  1.00  0.00     0.005 A 
HETATM    7  C   UNL     1      -0.374   3.975   0.673  1.00  0.00     0.044 A 
ENDROOT
BRANCH   2   8
HETATM    8  C   UNL     1       0.968  -0.067  -0.002  1.00  0.00     0.232 C 
HETATM    9 CL   UNL     1       0.132  -0.669  -1.472  1.00  0.00    -0.077 Cl
HETATM   10 CL   UNL     1       0.616  -1.202   1.352  1.00  0.00    -0.077 Cl
HETATM   11 CL   UNL     1       2.744  -0.142  -0.277  1.00  0.00    -0.077 Cl
ENDBRANCH   2   8
TORSDOF 1
