REMARK  5 active torsions:
REMARK  status: ('A' for Active; 'I' for Inactive)
REMARK    1  A    between atoms: C_1  and  C_4 
REMARK       I    between atoms: C_1  and  N_6 
REMARK    2  A    between atoms: O_2  and  C_4 
REMARK    3  A    between atoms: O_2  and  C_3 
REMARK    4  A    between atoms: N_6  and  C_12 
REMARK    5  A    between atoms: N_6  and  C_13 
ROOT
HETATM    1  C   UNL     1      -1.416  -1.439  -1.620  1.00  0.00     0.081 C 
HETATM    2  C   UNL     1      -2.621  -2.134  -1.868  1.00  0.00     0.007 A 
HETATM    3  C   UNL     1      -3.607  -1.516  -2.682  1.00  0.00    -0.023 A 
HETATM    4  C   UNL     1      -1.144  -0.271  -2.331  1.00  0.00     0.038 C 
HETATM    5  C   UNL     1      -2.127   0.349  -3.094  1.00  0.00     0.004 C 
HETATM    6  C   UNL     1      -2.878  -3.437  -1.391  1.00  0.00     0.015 A 
HETATM    7  C   UNL     1      -3.370  -0.251  -3.233  1.00  0.00     0.012 C 
HETATM    8  C   UNL     1      -4.800  -2.190  -2.979  1.00  0.00     0.012 A 
HETATM    9  C   UNL     1      -4.050  -4.116  -1.742  1.00  0.00     0.001 A 
HETATM   10  C   UNL     1      -5.011  -3.492  -2.530  1.00  0.00     0.001 A 
ENDROOT
BRANCH   1  11
HETATM   11  O   UNL     1      -0.468  -1.983  -0.786  1.00  0.00    -0.336 OA
BRANCH  11  12
HETATM   12  C   UNL     1      -0.080  -1.154   0.331  1.00  0.00     0.216 C 
HETATM   13  C   UNL     1       0.657  -2.089   1.303  1.00  0.00     0.050 C 
BRANCH  12  14
HETATM   14  C   UNL     1       0.903   0.005  -0.029  1.00  0.00     0.248 C 
HETATM   15  N   UNL     1       0.414   1.322  -0.146  1.00  0.00    -0.351 N 
HETATM   16  O   UNL     1       2.075  -0.280  -0.276  1.00  0.00    -0.270 OA
BRANCH  15  17
HETATM   17  C   UNL     1       1.205   2.363  -0.834  1.00  0.00     0.121 C 
HETATM   18  C   UNL     1       2.710   2.210  -0.990  1.00  0.00     0.026 C 
ENDBRANCH  15  17
BRANCH  15  19
HETATM   19  C   UNL     1      -0.930   1.720   0.321  1.00  0.00     0.121 C 
HETATM   20  C   UNL     1      -1.589   2.889  -0.408  1.00  0.00     0.026 C 
ENDBRANCH  15  19
ENDBRANCH  12  14
ENDBRANCH  11  12
ENDBRANCH   1  11
TORSDOF 5
