REMARK  3 active torsions:
REMARK  status: ('A' for Active; 'I' for Inactive)
REMARK    1  A    between atoms: N_2  and  C_8 
REMARK    2  A    between atoms: C_5  and  N_13 
REMARK    3  A    between atoms: C_6  and  C_9 
ROOT
HETATM    1  C   UNL     1      -0.675   1.375   0.046  1.00  0.00     0.292 A 
HETATM    2  N   UNL     1      -1.412   0.180  -0.002  1.00  0.00    -0.197 N 
HETATM    3  C   UNL     1       0.812   1.216   0.042  1.00  0.00     0.131 A 
HETATM    4  N   UNL     1      -0.800  -1.057  -0.001  1.00  0.00    -0.174 NA
HETATM    5  C   UNL     1       1.435   0.028   0.022  1.00  0.00     0.074 A 
HETATM    6  C   UNL     1       0.489  -1.109   0.016  1.00  0.00     0.170 A 
HETATM    7  O   UNL     1      -1.142   2.514   0.078  1.00  0.00    -0.264 OA
HETATM    8 CL   UNL     1       1.750   2.684   0.051  1.00  0.00    -0.076 Cl
ENDROOT
BRANCH   2   9
HETATM    9  C   UNL     1      -2.854   0.109  -0.068  1.00  0.00     0.063 A 
HETATM   10  C   UNL     1      -3.498  -1.143  -0.166  1.00  0.00     0.048 A 
HETATM   11  C   UNL     1      -4.898  -1.265  -0.265  1.00  0.00     0.050 A 
HETATM   12  C   UNL     1      -5.680  -0.106  -0.261  1.00  0.00     0.016 A 
HETATM   13  C   UNL     1      -5.074   1.139  -0.153  1.00  0.00     0.003 A 
HETATM   14  C   UNL     1      -3.680   1.243  -0.057  1.00  0.00     0.032 A 
BRANCH  11  15
HETATM   15  C   UNL     1      -5.558  -2.614  -0.402  1.00  0.00     0.417 C 
HETATM   16  F   UNL     1      -6.562  -2.800   0.501  1.00  0.00    -0.166 F 
HETATM   17  F   UNL     1      -6.125  -2.790  -1.628  1.00  0.00    -0.166 F 
HETATM   18  F   UNL     1      -4.707  -3.664  -0.231  1.00  0.00    -0.166 F 
ENDBRANCH  11  15
ENDBRANCH   2   9
BRANCH   5  19
HETATM   19  N   UNL     1       2.809  -0.168   0.006  1.00  0.00    -0.392 N 
HETATM   20  C   UNL     1       3.594  -1.377  -0.007  1.00  0.00     0.146 C 
HETATM   21  H   UNL     1       3.349   0.698   0.006  1.00  0.00     0.159 HD
ENDBRANCH   5  19
TORSDOF 3
