REMARK  9 active torsions:
REMARK  status: ('A' for Active; 'I' for Inactive)
REMARK    1  A    between atoms: C_1  and  N_5 
REMARK    2  A    between atoms: C_2  and  N_6 
REMARK    3  A    between atoms: S_3  and  C_7 
REMARK    4  A    between atoms: S_3  and  N_17 
REMARK    5  A    between atoms: C_4  and  N_10 
REMARK    6  A    between atoms: N_10  and  C_18 
REMARK    7  A    between atoms: N_10  and  C_19 
REMARK    8  A    between atoms: C_18  and  C_20 
REMARK    9  A    between atoms: C_19  and  C_21 
ROOT
HETATM    1  C   UNL     1      -0.615   1.105  -0.041  1.00  0.00     0.133 C 
HETATM    2  C   UNL     1      -0.438  -1.207   0.268  1.00  0.00     0.133 C 
HETATM    3  C   UNL     1      -1.362  -0.124   0.123  1.00  0.00     0.097 C 
HETATM    4  C   UNL     1       1.594   0.084  -0.118  1.00  0.00     0.079 C 
HETATM    5  C   UNL     1       0.979  -1.130   0.087  1.00  0.00     0.063 C 
HETATM    6  C   UNL     1       0.804   1.212  -0.158  1.00  0.00     0.063 C 
ENDROOT
BRANCH   3   7
HETATM    7  N   UNL     1      -2.783  -0.244   0.192  1.00  0.00    -0.377 N 
BRANCH   7   8
HETATM    8  C   UNL     1      -3.646  -1.373  -0.316  1.00  0.00     0.123 C 
BRANCH   8   9
HETATM    9  C   UNL     1      -3.289  -2.842  -0.271  1.00  0.00     0.015 C 
HETATM   10  C   UNL     1      -4.499  -3.727  -0.576  1.00  0.00     0.006 C 
ENDBRANCH   8   9
ENDBRANCH   7   8
BRANCH   7  11
HETATM   11  C   UNL     1      -3.590   1.040   0.189  1.00  0.00     0.123 C 
BRANCH  11  12
HETATM   12  C   UNL     1      -5.127   0.954   0.121  1.00  0.00     0.015 C 
HETATM   13  C   UNL     1      -5.761   2.340   0.072  1.00  0.00     0.006 C 
ENDBRANCH  11  12
ENDBRANCH   7  11
ENDBRANCH   3   7
BRANCH   1  14
HETATM   14  N   UNL     1      -1.189   2.439  -0.033  1.00  0.00    -0.113 N 
HETATM   15  O   UNL     1      -1.308   3.002  -1.130  1.00  0.00    -0.532 OA
HETATM   16  O   UNL     1      -1.413   2.953   1.071  1.00  0.00    -0.532 OA
ENDBRANCH   1  14
BRANCH   2  17
HETATM   17  N   UNL     1      -0.758  -2.438   0.964  1.00  0.00    -0.113 N 
HETATM   18  O   UNL     1      -0.466  -3.498   0.385  1.00  0.00    -0.532 OA
HETATM   19  O   UNL     1      -1.161  -2.343   2.130  1.00  0.00    -0.532 OA
ENDBRANCH   2  17
BRANCH   4  20
HETATM   20  S   UNL     1       3.351   0.257  -0.155  1.00  0.00     0.239 S 
HETATM   21  O   UNL     1       3.718   0.762  -1.456  1.00  0.00    -0.206 OA
HETATM   22  O   UNL     1       3.755   0.879   1.080  1.00  0.00    -0.206 OA
BRANCH  20  23
HETATM   23  N   UNL     1       3.929  -1.317  -0.091  1.00  0.00    -0.225 NA
HETATM   24  H   UNL     1       4.458  -1.526  -0.939  1.00  0.00     0.136 HD
HETATM   25  H   UNL     1       4.474  -1.451   0.764  1.00  0.00     0.136 HD
ENDBRANCH  20  23
ENDBRANCH   4  20
TORSDOF 9
