REMARK  4 active torsions:
REMARK  status: ('A' for Active; 'I' for Inactive)
REMARK    1  A    between atoms: N_1  and  C_6 
REMARK    2  A    between atoms: C_5  and  C_12 
REMARK    3  A    between atoms: C_9  and  O_14 
REMARK    4  A    between atoms: O_14  and  C_17 
ROOT
HETATM    1  C   UNL     1      -0.406  -2.661  -0.181  1.00  0.00     0.088 A 
HETATM    2  C   UNL     1       0.466  -3.487   0.566  1.00  0.00     0.072 A 
HETATM    3  C   UNL     1      -1.483  -3.271  -0.848  1.00  0.00     0.064 A 
HETATM    4  C   UNL     1       0.249  -4.862   0.705  1.00  0.00     0.093 A 
HETATM    5  C   UNL     1      -1.712  -4.645  -0.712  1.00  0.00     0.053 A 
HETATM    6  C   UNL     1      -0.860  -5.430   0.064  1.00  0.00     0.069 A 
HETATM    7 CL   UNL     1      -2.466  -2.468  -2.022  1.00  0.00    -0.082 Cl
HETATM    8 CL   UNL     1      -1.202  -7.121   0.181  1.00  0.00    -0.081 Cl
ENDROOT
BRANCH   1   9
HETATM    9  N   UNL     1      -0.129  -1.274  -0.214  1.00  0.00    -0.172 N 
HETATM   10  N   UNL     1       1.162  -0.844  -0.042  1.00  0.00    -0.140 NA
HETATM   11  C   UNL     1       1.047   0.445  -0.100  1.00  0.00     0.178 A 
HETATM   12  O   UNL     1      -0.206   0.919  -0.251  1.00  0.00    -0.242 OA
HETATM   13  C   UNL     1      -0.993  -0.197  -0.279  1.00  0.00     0.395 A 
HETATM   14  O   UNL     1      -2.210  -0.147  -0.271  1.00  0.00    -0.236 OA
BRANCH  11  15
HETATM   15  C   UNL     1       2.155   1.464   0.011  1.00  0.00     0.018 C 
HETATM   16  C   UNL     1       2.109   2.394  -1.208  1.00  0.00     0.023 C 
HETATM   17  C   UNL     1       1.955   2.269   1.301  1.00  0.00     0.023 C 
HETATM   18  C   UNL     1       3.521   0.764   0.056  1.00  0.00     0.023 C 
ENDBRANCH  11  15
ENDBRANCH   1   9
BRANCH   4  19
HETATM   19  O   UNL     1       1.033  -5.714   1.433  1.00  0.00    -0.345 OA
BRANCH  19  20
HETATM   20  C   UNL     1       2.200  -5.234   2.107  1.00  0.00     0.120 C 
HETATM   21  C   UNL     1       1.821  -4.683   3.479  1.00  0.00     0.040 C 
HETATM   22  C   UNL     1       3.134  -6.432   2.269  1.00  0.00     0.040 C 
ENDBRANCH  19  20
ENDBRANCH   4  19
TORSDOF 4
