REMARK  6 active torsions:
REMARK  status: ('A' for Active; 'I' for Inactive)
REMARK    1  A    between atoms: N_1  and  C_2 
REMARK    2  A    between atoms: C_3  and  C_5 
REMARK    3  A    between atoms: C_4  and  O_22 
REMARK    4  A    between atoms: C_6  and  O_12 
REMARK    5  A    between atoms: O_12  and  C_14 
REMARK    6  A    between atoms: O_22  and  C_23 
ROOT
HETATM    1  C   UNL     1       0.370   1.222   0.051  1.00  0.00     0.136 C 
HETATM    2  C   UNL     1      -0.999   1.170   0.346  1.00  0.00     0.104 C 
HETATM    3  C   UNL     1      -1.702   2.377   0.482  1.00  0.00     0.076 C 
HETATM    4  C   UNL     1       0.997   2.459  -0.181  1.00  0.00     0.042 C 
HETATM    5  C   UNL     1      -1.125   3.588   0.102  1.00  0.00     0.079 C 
HETATM    6  C   UNL     1       0.240   3.633  -0.181  1.00  0.00     0.040 C 
ENDROOT
BRANCH   5   7
HETATM    7  O   UNL     1      -1.793   4.786   0.030  1.00  0.00    -0.309 OA
BRANCH   7   8
HETATM    8  C   UNL     1      -3.100   4.886  -0.409  1.00  0.00     0.097 A 
HETATM    9  C   UNL     1      -3.722   6.133  -0.236  1.00  0.00     0.068 A 
HETATM   10  C   UNL     1      -5.065   6.324  -0.586  1.00  0.00     0.042 A 
HETATM   11 CL   UNL     1      -2.854   7.489   0.395  1.00  0.00    -0.081 Cl
HETATM   12  C   UNL     1      -5.821   5.268  -1.113  1.00  0.00     0.049 A 
HETATM   13  C   UNL     1      -5.186   4.042  -1.342  1.00  0.00     0.019 A 
HETATM   14  C   UNL     1      -3.832   3.870  -1.035  1.00  0.00     0.040 A 
BRANCH  12  15
HETATM   15  C   UNL     1      -7.292   5.424  -1.412  1.00  0.00     0.417 C 
HETATM   16  F   UNL     1      -7.633   4.924  -2.631  1.00  0.00    -0.166 F 
HETATM   17  F   UNL     1      -8.069   4.766  -0.508  1.00  0.00    -0.166 F 
HETATM   18  F   UNL     1      -7.715   6.716  -1.403  1.00  0.00    -0.166 F 
ENDBRANCH  12  15
ENDBRANCH   7   8
ENDBRANCH   5   7
BRANCH   2  19
HETATM   19  O   UNL     1      -1.647  -0.029   0.507  1.00  0.00    -0.349 OA
BRANCH  19  20
HETATM   20  C   UNL     1      -2.949  -0.064  -0.099  1.00  0.00     0.171 C 
HETATM   21  C   UNL     1      -3.320  -1.491  -0.454  1.00  0.00     0.034 C 
ENDBRANCH  19  20
ENDBRANCH   2  19
BRANCH   1  22
HETATM   22  N   UNL     1       1.189   0.010  -0.050  1.00  0.00    -0.113 N 
HETATM   23  O   UNL     1       0.650  -1.049  -0.394  1.00  0.00    -0.532 OA
HETATM   24  O   UNL     1       2.405   0.134   0.171  1.00  0.00    -0.532 OA
ENDBRANCH   1  22
TORSDOF 6
