REMARK  6 active torsions:
REMARK  status: ('A' for Active; 'I' for Inactive)
REMARK    1  A    between atoms: C_1  and  N_4 
REMARK    2  A    between atoms: C_2  and  N_5 
REMARK    3  A    between atoms: C_3  and  N_9 
REMARK    4  A    between atoms: N_9  and  C_14 
REMARK    5  A    between atoms: C_14  and  C_17 
REMARK    6  A    between atoms: C_14  and  C_18 
ROOT
HETATM    1  C   UNL     1      -0.482   1.248   0.632  1.00  0.00     0.132 A 
HETATM    2  C   UNL     1      -0.666  -1.039   0.040  1.00  0.00     0.138 A 
HETATM    3  C   UNL     1      -1.341   0.196   0.281  1.00  0.00     0.095 A 
HETATM    4  C   UNL     1       0.750  -1.217   0.106  1.00  0.00    -0.021 A 
HETATM    5  C   UNL     1       0.923   1.136   0.607  1.00  0.00     0.046 A 
HETATM    6  C   UNL     1       1.550  -0.080   0.309  1.00  0.00    -0.051 A 
HETATM    7  C   UNL     1       1.386  -2.577  -0.064  1.00  0.00     0.051 C 
HETATM    8  C   UNL     1       3.053  -0.075   0.205  1.00  0.00     0.049 C 
ENDROOT
BRANCH   3   9
HETATM    9  N   UNL     1      -2.706   0.291   0.048  1.00  0.00    -0.381 N 
HETATM   10  H   UNL     1      -3.234  -0.579   0.161  1.00  0.00     0.160 HD
BRANCH   9  11
HETATM   11  C   UNL     1      -3.545   1.443  -0.311  1.00  0.00     0.081 C 
BRANCH  11  12
HETATM   12  C   UNL     1      -3.448   1.750  -1.821  1.00  0.00     0.020 C 
HETATM   13  C   UNL     1      -2.120   2.342  -2.270  1.00  0.00     0.007 C 
ENDBRANCH  11  12
BRANCH  11  14
HETATM   14  C   UNL     1      -5.001   1.061   0.062  1.00  0.00     0.020 C 
HETATM   15  C   UNL     1      -5.966   2.237   0.075  1.00  0.00     0.007 C 
ENDBRANCH  11  14
ENDBRANCH   9  11
ENDBRANCH   3   9
BRANCH   1  16
HETATM   16  N   UNL     1      -0.983   2.492   1.185  1.00  0.00    -0.113 N 
HETATM   17  O   UNL     1      -0.643   3.540   0.618  1.00  0.00    -0.532 OA
HETATM   18  O   UNL     1      -1.653   2.425   2.224  1.00  0.00    -0.532 OA
ENDBRANCH   1  16
BRANCH   2  19
HETATM   19  N   UNL     1      -1.481  -2.191  -0.339  1.00  0.00    -0.113 N 
HETATM   20  O   UNL     1      -1.233  -2.736  -1.424  1.00  0.00    -0.532 OA
HETATM   21  O   UNL     1      -2.378  -2.533   0.446  1.00  0.00    -0.532 OA
ENDBRANCH   2  19
TORSDOF 6
