REMARK  7 active torsions:
REMARK  status: ('A' for Active; 'I' for Inactive)
REMARK    1  A    between atoms: N_1  and  C_7 
REMARK    2  A    between atoms: P_5  and  S_8 
REMARK    3  A    between atoms: P_5  and  O_13 
REMARK    4  A    between atoms: P_5  and  O_14 
REMARK    5  A    between atoms: C_7  and  S_8 
REMARK    6  A    between atoms: O_13  and  C_18 
REMARK    7  A    between atoms: O_14  and  C_19 
ROOT
HETATM    1  N   UNL     1       1.257   1.072   0.258  1.00  0.00    -0.281 N 
HETATM    2  C   UNL     1       2.055  -0.065   0.157  1.00  0.00     0.373 A 
HETATM    3  O   UNL     1       1.300  -1.215  -0.040  1.00  0.00    -0.259 OA
HETATM    4  C   UNL     1      -0.052   0.656   0.167  1.00  0.00     0.074 A 
HETATM    5  C   UNL     1       0.011  -0.720  -0.004  1.00  0.00     0.109 A 
HETATM    6  C   UNL     1      -1.108  -1.520  -0.103  1.00  0.00     0.063 A 
HETATM    7  C   UNL     1      -1.268   1.304   0.205  1.00  0.00     0.034 A 
HETATM    8  O   UNL     1       3.278  -0.084   0.240  1.00  0.00    -0.237 OA
HETATM    9  C   UNL     1      -2.342  -0.882  -0.056  1.00  0.00     0.036 A 
HETATM   10  C   UNL     1      -2.426   0.516   0.082  1.00  0.00     0.026 A 
HETATM   11 CL   UNL     1      -3.781  -1.820  -0.164  1.00  0.00    -0.084 Cl
ENDROOT
BRANCH   1  12
HETATM   12  C   UNL     1       1.883   2.288   0.676  1.00  0.00     0.218 C 
BRANCH  12  13
HETATM   13  S   UNL     1       1.063   3.883   0.594  1.00  0.00    -0.054 SA
BRANCH  13  14
HETATM   14  P   UNL     1       2.719   5.053  -0.093  1.00  0.00     0.249 P 
HETATM   15  S   UNL     1       4.491   4.546   0.582  1.00  0.00    -0.026 SA
BRANCH  14  16
HETATM   16  O   UNL     1       2.682   5.068  -1.724  1.00  0.00    -0.327 OA
BRANCH  16  17
HETATM   17  C   UNL     1       1.738   4.276  -2.424  1.00  0.00     0.172 C 
HETATM   18  C   UNL     1       1.971   4.401  -3.913  1.00  0.00     0.034 C 
ENDBRANCH  16  17
ENDBRANCH  14  16
BRANCH  14  19
HETATM   19  O   UNL     1       2.400   6.640   0.165  1.00  0.00    -0.327 OA
BRANCH  19  20
HETATM   20  C   UNL     1       3.474   7.547  -0.101  1.00  0.00     0.172 C 
HETATM   21  C   UNL     1       3.021   8.991  -0.112  1.00  0.00     0.034 C 
ENDBRANCH  19  20
ENDBRANCH  14  19
ENDBRANCH  13  14
ENDBRANCH  12  13
ENDBRANCH   1  12
TORSDOF 7
