REMARK  0 active torsions:
REMARK  status: ('A' for Active; 'I' for Inactive)
ROOT
HETATM    1  C   UNL     1       0.720  -0.397  -0.000  1.00  0.00    -0.015 A 
HETATM    2  C   UNL     1      -0.721  -0.397   0.000  1.00  0.00    -0.015 A 
HETATM    3  C   UNL     1      -1.413   0.842   0.000  1.00  0.00    -0.025 A 
HETATM    4  C   UNL     1       1.413   0.842   0.000  1.00  0.00    -0.025 A 
HETATM    5  C   UNL     1       0.697   2.041   0.000  1.00  0.00     0.013 A 
HETATM    6  C   UNL     1      -0.696   2.042   0.000  1.00  0.00     0.013 A 
HETATM    7  C   UNL     1       1.518  -1.570  -0.000  1.00  0.00     0.013 A 
HETATM    8  C   UNL     1      -1.519  -1.569   0.000  1.00  0.00     0.013 A 
HETATM    9  C   UNL     1      -2.817   0.878   0.000  1.00  0.00     0.012 A 
HETATM   10  C   UNL     1       2.818   0.876   0.000  1.00  0.00     0.012 A 
HETATM   11  C   UNL     1      -2.917  -1.521   0.000  1.00  0.00     0.001 A 
HETATM   12  C   UNL     1       2.915  -1.523  -0.000  1.00  0.00     0.001 A 
HETATM   13  C   UNL     1       3.566  -0.298  -0.000  1.00  0.00     0.001 A 
HETATM   14  C   UNL     1      -3.566  -0.296   0.000  1.00  0.00     0.001 A 
ENDROOT
TORSDOF 0
