REMARK  5 active torsions:
REMARK  status: ('A' for Active; 'I' for Inactive)
REMARK    1  A    between atoms: N_1  and  C_7 
REMARK    2  A    between atoms: P_4  and  S_8 
REMARK    3  A    between atoms: P_4  and  O_12 
REMARK    4  A    between atoms: P_4  and  O_13 
REMARK    5  A    between atoms: C_7  and  S_8 
ROOT
HETATM    1  N   UNL     1      -2.181  -0.921   0.112  1.00  0.00    -0.270 N 
HETATM    2  C   UNL     1      -1.067  -1.719   0.112  1.00  0.00     0.262 A 
HETATM    3  C   UNL     1      -1.829   0.407   0.096  1.00  0.00     0.262 A 
HETATM    4  C   UNL     1       0.091  -0.838   0.062  1.00  0.00     0.048 A 
HETATM    5  C   UNL     1      -0.368   0.462   0.058  1.00  0.00     0.048 A 
HETATM    6  O   UNL     1      -2.545   1.388   0.116  1.00  0.00    -0.267 OA
HETATM    7  O   UNL     1      -0.926  -2.929   0.155  1.00  0.00    -0.267 OA
HETATM    8  C   UNL     1       1.437  -1.149   0.027  1.00  0.00     0.018 A 
HETATM    9  C   UNL     1       0.500   1.535   0.023  1.00  0.00     0.018 A 
HETATM   10  C   UNL     1       1.871   1.250  -0.009  1.00  0.00     0.001 A 
HETATM   11  C   UNL     1       2.336  -0.082  -0.008  1.00  0.00     0.001 A 
ENDROOT
BRANCH   1  12
HETATM   12  C   UNL     1      -3.594  -1.309   0.118  1.00  0.00     0.219 C 
BRANCH  12  13
HETATM   13  S   UNL     1      -3.863  -3.061   0.003  1.00  0.00    -0.054 SA
BRANCH  13  14
HETATM   14  P   UNL     1      -5.830  -3.853   0.003  1.00  0.00     0.248 P 
HETATM   15  S   UNL     1      -6.546  -2.202  -0.949  1.00  0.00    -0.026 SA
BRANCH  14  16
HETATM   16  O   UNL     1      -5.419  -5.009  -1.121  1.00  0.00    -0.332 OA
HETATM   17  C   UNL     1      -4.249  -5.806  -1.040  1.00  0.00     0.211 C 
ENDBRANCH  14  16
BRANCH  14  18
HETATM   18  O   UNL     1      -7.435  -4.499   0.004  1.00  0.00    -0.332 OA
HETATM   19  C   UNL     1      -8.096  -5.013  -1.144  1.00  0.00     0.211 C 
ENDBRANCH  14  18
ENDBRANCH  13  14
ENDBRANCH  12  13
ENDBRANCH   1  12
TORSDOF 5
