REMARK  7 active torsions:
REMARK  status: ('A' for Active; 'I' for Inactive)
REMARK    1  A    between atoms: C_2  and  N_8 
REMARK    2  A    between atoms: P_3  and  O_6 
REMARK    3  A    between atoms: P_3  and  O_11 
REMARK    4  A    between atoms: P_3  and  O_12 
REMARK    5  A    between atoms: C_4  and  O_6 
REMARK    6  A    between atoms: N_8  and  C_13 
REMARK    7  A    between atoms: N_8  and  C_14 
ROOT
HETATM    1  N   UNL     1      -0.527   1.077  -0.281  1.00  0.00    -0.038 NA
HETATM    2  C   UNL     1      -1.135  -0.119  -0.308  1.00  0.00     0.727 A 
HETATM    3  C   UNL     1       0.808   1.139  -0.169  1.00  0.00     0.193 A 
HETATM    4  N   UNL     1      -0.417  -1.243  -0.246  1.00  0.00    -0.068 NA
HETATM    5  C   UNL     1       1.603   0.028  -0.121  1.00  0.00     0.086 A 
HETATM    6  C   UNL     1       0.929  -1.169  -0.166  1.00  0.00     0.054 A 
HETATM    7  C   UNL     1       1.670  -2.469  -0.095  1.00  0.00     0.071 C 
ENDROOT
BRANCH   3   8
HETATM    8  O   UNL     1       1.437   2.369   0.004  1.00  0.00    -0.252 OA
BRANCH   8   9
HETATM    9  P   UNL     1       0.604   3.886   0.008  1.00  0.00     0.334 P 
HETATM   10  S   UNL     1       0.427   3.845  -2.007  1.00  0.00    -0.007 SA
BRANCH   9  11
HETATM   11  O   UNL     1      -0.605   3.291   0.954  1.00  0.00    -0.319 OA
HETATM   12  C   UNL     1      -0.315   2.997   2.307  1.00  0.00     0.212 C 
ENDBRANCH   9  11
BRANCH   9  13
HETATM   13  O   UNL     1      -0.230   5.402   0.012  1.00  0.00    -0.319 OA
HETATM   14  C   UNL     1      -1.649   5.460  -0.053  1.00  0.00     0.212 C 
ENDBRANCH   9  13
ENDBRANCH   8   9
ENDBRANCH   3   8
BRANCH   2  15
HETATM   15  N   UNL     1      -2.528  -0.165  -0.399  1.00  0.00    -0.215 N 
BRANCH  15  16
HETATM   16  C   UNL     1      -3.317  -1.348  -0.033  1.00  0.00     0.137 C 
HETATM   17  C   UNL     1      -2.685  -2.725  -0.120  1.00  0.00     0.027 C 
ENDBRANCH  15  16
BRANCH  15  18
HETATM   18  C   UNL     1      -3.154   1.163  -0.231  1.00  0.00     0.137 C 
HETATM   19  C   UNL     1      -4.680   1.164  -0.247  1.00  0.00     0.027 C 
ENDBRANCH  15  18
ENDBRANCH   2  15
TORSDOF 7
