REMARK  7 active torsions:
REMARK  status: ('A' for Active; 'I' for Inactive)
REMARK    1  A    between atoms: S_1  and  O_2 
REMARK    2  A    between atoms: S_1  and  O_13 
REMARK    3  A    between atoms: O_2  and  C_3 
REMARK    4  A    between atoms: C_6  and  O_7 
REMARK    5  A    between atoms: O_7  and  C_14 
REMARK    6  A    between atoms: C_9  and  C_10 
REMARK    7  A    between atoms: O_13  and  C_17 
ROOT
HETATM    1  C   UNL     1       4.757   0.548   1.268  1.00  0.00    -0.090 C 
HETATM    2  C   UNL     1       6.061   0.548   1.268  1.00  0.00     0.014 C 
HETATM    3  C   UNL     1       3.237   0.548   1.268  1.00  0.00     0.282 C 
ENDROOT
BRANCH   3   4
HETATM    4  O   UNL     1       2.734   1.082   0.065  1.00  0.00    -0.262 OA
BRANCH   4   5
HETATM    5  S   UNL     1       1.135   1.000  -0.057  1.00  0.00     0.307 S 
HETATM    6  O   UNL     1       0.816   0.422  -1.405  1.00  0.00    -0.196 OA
BRANCH   5   7
HETATM    7  O   UNL     1       0.860   2.586  -0.132  1.00  0.00    -0.266 OA
BRANCH   7   8
HETATM    8  C   UNL     1       0.929   3.250   1.136  1.00  0.00     0.171 C 
HETATM    9  C   UNL     1       0.249   4.621   1.091  1.00  0.00     0.159 C 
HETATM   10  C   UNL     1       0.968   5.452  -0.015  1.00  0.00     0.035 C 
HETATM   11  C   UNL     1       2.506   5.517   0.123  1.00  0.00     0.003 C 
HETATM   12  C   UNL     1       3.151   4.181   0.465  1.00  0.00     0.003 C 
HETATM   13  C   UNL     1       2.369   3.556   1.598  1.00  0.00     0.036 C 
BRANCH   9  14
HETATM   14  O   UNL     1       0.358   5.353   2.344  1.00  0.00    -0.343 OA
BRANCH  14  15
HETATM   15  C   UNL     1      -0.143   4.838   3.512  1.00  0.00     0.069 C 
HETATM   16  C   UNL     1       0.061   3.557   4.023  1.00  0.00     0.037 C 
HETATM   17  C   UNL     1      -0.543   3.126   5.206  1.00  0.00     0.011 C 
HETATM   18  C   UNL     1      -1.298   4.001   5.988  1.00  0.00    -0.050 C 
HETATM   19  C   UNL     1      -1.352   5.338   5.562  1.00  0.00     0.011 C 
HETATM   20  C   UNL     1      -0.792   5.745   4.339  1.00  0.00     0.037 C 
BRANCH  18  21
HETATM   21  C   UNL     1      -2.067   3.459   7.200  1.00  0.00    -0.024 C 
HETATM   22  C   UNL     1      -3.171   2.513   6.672  1.00  0.00     0.019 C 
HETATM   23  C   UNL     1      -1.148   2.662   8.154  1.00  0.00     0.019 C 
HETATM   24  C   UNL     1      -2.747   4.565   8.030  1.00  0.00     0.019 C 
ENDBRANCH  18  21
ENDBRANCH  14  15
ENDBRANCH   9  14
ENDBRANCH   7   8
ENDBRANCH   5   7
ENDBRANCH   4   5
ENDBRANCH   3   4
TORSDOF 7
