REMARK  6 active torsions:
REMARK  status: ('A' for Active; 'I' for Inactive)
REMARK       I    between atoms: N_1  and  C_2 
REMARK       I    between atoms: C_2  and  N_10 
REMARK    1  A    between atoms: C_3  and  O_17 
REMARK    2  A    between atoms: N_10  and  C_20 
REMARK    3  A    between atoms: N_10  and  C_21 
REMARK    4  A    between atoms: O_17  and  C_19 
REMARK    5  A    between atoms: C_19  and  C_20 
REMARK    6  A    between atoms: C_21  and  C_22 
ROOT
HETATM    1  C   UNL     1      -0.308  -4.807   0.021  1.00  0.00     0.154 C 
ENDROOT
BRANCH   1   2
HETATM    2  N   UNL     1       0.285  -3.435   0.014  1.00  0.00    -0.332 N 
HETATM    3  C   UNL     1      -0.577  -2.314   0.005  1.00  0.00     0.329 C 
HETATM    4  N   UNL     1      -0.077  -0.983   0.002  1.00  0.00    -0.268 N 
HETATM    5  O   UNL     1      -1.800  -2.399   0.001  1.00  0.00    -0.246 OA
HETATM    6  C   UNL     1      -0.949   0.104   0.001  1.00  0.00     0.218 A 
HETATM    7  C   UNL     1       1.173  -0.396  -0.001  1.00  0.00     0.121 A 
HETATM    8  N   UNL     1      -0.346   1.269  -0.002  1.00  0.00    -0.254 NA
HETATM    9  C   UNL     1       0.977   0.967  -0.003  1.00  0.00     0.135 A 
BRANCH   2  10
HETATM   10  C   UNL     1       1.749  -3.346   0.013  1.00  0.00     0.127 C 
BRANCH  10  11
HETATM   11  C   UNL     1       2.577  -4.636   0.019  1.00  0.00     0.015 C 
HETATM   12  C   UNL     1       4.067  -4.309   0.015  1.00  0.00     0.006 C 
ENDBRANCH  10  11
ENDBRANCH   2  10
ENDBRANCH   1   2
BRANCH   1  13
HETATM   13  C   UNL     1      -1.843  -4.960   0.030  1.00  0.00     0.195 C 
BRANCH  13  14
HETATM   14  O   UNL     1      -2.236  -6.330   0.042  1.00  0.00    -0.346 OA
BRANCH  14  15
HETATM   15  C   UNL     1      -3.577  -6.648   0.046  1.00  0.00     0.112 A 
HETATM   16  C   UNL     1      -4.703  -5.797   0.050  1.00  0.00     0.070 A 
HETATM   17  C   UNL     1      -6.004  -6.331   0.056  1.00  0.00     0.050 A 
HETATM   18 CL   UNL     1      -4.690  -4.067   0.050  1.00  0.00    -0.081 Cl
HETATM   19  C   UNL     1      -6.209  -7.702   0.058  1.00  0.00     0.037 A 
HETATM   20  C   UNL     1      -5.125  -8.565   0.054  1.00  0.00     0.050 A 
HETATM   21 CL   UNL     1      -7.811  -8.326   0.065  1.00  0.00    -0.084 Cl
HETATM   22  C   UNL     1      -3.827  -8.041   0.048  1.00  0.00     0.070 A 
HETATM   23 CL   UNL     1      -2.526  -9.190   0.044  1.00  0.00    -0.081 Cl
ENDBRANCH  14  15
ENDBRANCH  13  14
ENDBRANCH   1  13
TORSDOF 6
