REMARK  5 active torsions:
REMARK  status: ('A' for Active; 'I' for Inactive)
REMARK    1  A    between atoms: C_6  and  N_10 
REMARK    2  A    between atoms: C_7  and  N_9 
REMARK    3  A    between atoms: S_8  and  C_13 
REMARK    4  A    between atoms: N_9  and  C_12 
REMARK    5  A    between atoms: N_10  and  C_16 
ROOT
HETATM    1  N   UNL     1       7.090  -1.540   1.562  1.00  0.00    -0.192 NA
HETATM    2  C   UNL     1       6.659  -0.313   1.325  1.00  0.00     0.207 A 
HETATM    3  C   UNL     1       6.133  -2.442   1.752  1.00  0.00     0.193 A 
HETATM    4  N   UNL     1       5.384   0.028   1.262  1.00  0.00    -0.187 NA
HETATM    5  N   UNL     1       4.830  -2.196   1.727  1.00  0.00    -0.192 NA
HETATM    6  C   UNL     1       4.502  -0.942   1.470  1.00  0.00     0.207 A 
ENDROOT
BRANCH   2   7
HETATM    7  N   UNL     1       7.558   0.726   1.119  1.00  0.00    -0.257 NA
HETATM    8  H   UNL     1       7.043   1.583   1.296  1.00  0.00     0.131 HD
BRANCH   7   9
HETATM    9  C   UNL     1       8.869   0.613   1.744  1.00  0.00     0.055 C 
HETATM   10  C   UNL     1       9.850  -0.030   0.763  1.00  0.00     0.026 C 
HETATM   11  C   UNL     1       9.360   2.011   2.124  1.00  0.00     0.026 C 
ENDBRANCH   7   9
ENDBRANCH   2   7
BRANCH   3  12
HETATM   12  S   UNL     1       6.600  -4.132   2.066  1.00  0.00    -0.094 SA
HETATM   13  C   UNL     1       8.403  -3.988   2.026  1.00  0.00     0.099 C 
ENDBRANCH   3  12
BRANCH   6  14
HETATM   14  N   UNL     1       3.137  -0.673   1.450  1.00  0.00    -0.257 NA
HETATM   15  H   UNL     1       2.711  -1.595   1.526  1.00  0.00     0.131 HD
BRANCH  14  16
HETATM   16  C   UNL     1       2.673   0.082   0.284  1.00  0.00     0.055 C 
HETATM   17  C   UNL     1       1.199  -0.265   0.047  1.00  0.00     0.026 C 
HETATM   18  C   UNL     1       2.801   1.588   0.511  1.00  0.00     0.026 C 
ENDBRANCH  14  16
ENDBRANCH   6  14
TORSDOF 5
