REMARK  5 active torsions:
REMARK  status: ('A' for Active; 'I' for Inactive)
REMARK    1  A    between atoms: C_3  and  C_12 
REMARK    2  A    between atoms: C_4  and  C_7 
REMARK    3  A    between atoms: C_5  and  C_20 
REMARK    4  A    between atoms: C_7  and  O_9 
REMARK    5  A    between atoms: C_13  and  C_16 
ROOT
HETATM    1  N   UNL     1      -0.368   1.288  -0.091  1.00  0.00    -0.256 NA
HETATM    2  C   UNL     1      -1.141   0.181  -0.063  1.00  0.00     0.124 A 
HETATM    3  C   UNL     1       0.995   1.167  -0.036  1.00  0.00     0.119 A 
HETATM    4  C   UNL     1       1.607  -0.090   0.041  1.00  0.00     0.070 A 
HETATM    5  C   UNL     1      -0.636  -1.101   0.022  1.00  0.00    -0.040 A 
HETATM    6  C   UNL     1       0.759  -1.219   0.093  1.00  0.00     0.029 A 
ENDROOT
BRANCH   3   7
HETATM    7  C   UNL     1       1.652   2.527  -0.059  1.00  0.00     0.156 A 
HETATM    8  N   UNL     1       1.028   3.624   0.269  1.00  0.00    -0.250 NA
HETATM    9  C   UNL     1       2.041   4.731   0.195  1.00  0.00     0.136 A 
HETATM   10  C   UNL     1       3.284   4.005  -0.309  1.00  0.00     0.253 A 
HETATM   11  C   UNL     1       2.294   5.212   1.627  1.00  0.00     0.051 C 
HETATM   12  N   UNL     1       2.927   2.708  -0.464  1.00  0.00    -0.308 N 
HETATM   13  O   UNL     1       4.403   4.458  -0.479  1.00  0.00    -0.270 OA
HETATM   14  H   UNL     1       3.633   1.995  -0.603  1.00  0.00     0.170 HD
BRANCH   9  15
HETATM   15  C   UNL     1       1.553   5.826  -0.789  1.00  0.00     0.017 C 
HETATM   16  C   UNL     1       0.194   6.420  -0.390  1.00  0.00     0.012 C 
HETATM   17  C   UNL     1       2.550   6.983  -0.956  1.00  0.00     0.012 C 
ENDBRANCH   9  15
ENDBRANCH   3   7
BRANCH   4  18
HETATM   18  C   UNL     1       3.076  -0.288   0.145  1.00  0.00     0.178 C 
HETATM   19  O   UNL     1       3.851   0.599   0.459  1.00  0.00    -0.646 OA
BRANCH  18  20
HETATM   20  O   UNL     1       3.542  -1.517  -0.162  1.00  0.00    -0.773 OA
HETATM   21  H   UNL     1       2.941  -2.174  -0.552  1.00  0.00     0.167 HD
ENDBRANCH  18  20
ENDBRANCH   4  18
BRANCH   5  22
HETATM   22  C   UNL     1      -1.477  -2.354   0.035  1.00  0.00     0.035 C 
HETATM   23  C   UNL     1      -2.989  -2.174   0.017  1.00  0.00     0.010 C 
ENDBRANCH   5  22
TORSDOF 5
