REMARK  5 active torsions:
REMARK  status: ('A' for Active; 'I' for Inactive)
REMARK    1  A    between atoms: C_1  and  C_2 
REMARK    2  A    between atoms: C_1  and  C_3 
REMARK    3  A    between atoms: C_3  and  N_8 
REMARK    4  A    between atoms: C_9  and  C_16 
REMARK    5  A    between atoms: C_16  and  C_20 
ROOT
HETATM    1  C   UNL     1      -0.808  -0.985  -0.613  1.00  0.00     0.213 C 
HETATM    2  O   UNL     1       0.626  -1.085  -0.676  1.00  0.00    -0.342 OA
HETATM    3  O   UNL     1      -1.150   0.305  -0.070  1.00  0.00    -0.347 OA
HETATM    4  C   UNL     1       1.179   0.044  -0.003  1.00  0.00     0.149 C 
HETATM    5  C   UNL     1       0.057   1.043   0.098  1.00  0.00     0.204 C 
ENDROOT
BRANCH   1   6
HETATM    6  C   UNL     1      -1.290  -1.183  -2.065  1.00  0.00     0.027 A 
HETATM    7  C   UNL     1      -1.603  -0.146  -2.974  1.00  0.00     0.047 A 
HETATM    8  C   UNL     1      -1.789  -0.402  -4.346  1.00  0.00     0.048 A 
HETATM    9 CL   UNL     1      -1.811   1.519  -2.558  1.00  0.00    -0.084 Cl
HETATM   10  C   UNL     1      -1.715  -1.693  -4.843  1.00  0.00     0.035 A 
HETATM   11  C   UNL     1      -1.486  -2.745  -3.976  1.00  0.00     0.024 A 
HETATM   12 CL   UNL     1      -1.893  -1.985  -6.526  1.00  0.00    -0.084 Cl
HETATM   13  C   UNL     1      -1.271  -2.489  -2.617  1.00  0.00     0.016 A 
ENDBRANCH   1   6
BRANCH   1  14
HETATM   14  C   UNL     1      -1.342  -1.971   0.464  1.00  0.00     0.226 C 
BRANCH  14  15
HETATM   15  N   UNL     1      -0.941  -3.356   0.405  1.00  0.00    -0.257 N 
HETATM   16  C   UNL     1       0.304  -3.893   0.272  1.00  0.00     0.230 A 
HETATM   17  N   UNL     1       0.220  -5.207   0.281  1.00  0.00    -0.234 NA
HETATM   18  C   UNL     1      -1.111  -5.429   0.468  1.00  0.00     0.256 A 
HETATM   19  N   UNL     1      -1.864  -4.329   0.551  1.00  0.00    -0.165 NA
ENDBRANCH  14  15
ENDBRANCH   1  14
BRANCH   4  20
HETATM   20  C   UNL     1       2.364   0.565  -0.814  1.00  0.00     0.034 C 
BRANCH  20  21
HETATM   21  C   UNL     1       3.559  -0.388  -0.745  1.00  0.00    -0.002 C 
HETATM   22  C   UNL     1       4.607  -0.046  -1.792  1.00  0.00     0.005 C 
ENDBRANCH  20  21
ENDBRANCH   4  20
TORSDOF 5
