REMARK  0 active torsions:
REMARK  status: ('A' for Active; 'I' for Inactive)
ROOT
HETATM    1  C   UNL     1       0.709   0.009   0.000  1.00  0.00    -0.004 A 
HETATM    2  C   UNL     1      -0.709   0.009  -0.000  1.00  0.00    -0.004 A 
HETATM    3  C   UNL     1       1.415   1.233   0.000  1.00  0.00    -0.024 A 
HETATM    4  C   UNL     1      -1.415   1.233  -0.000  1.00  0.00    -0.024 A 
HETATM    5  C   UNL     1       1.415  -1.216   0.000  1.00  0.00    -0.024 A 
HETATM    6  C   UNL     1      -1.415  -1.216  -0.000  1.00  0.00    -0.024 A 
HETATM    7  C   UNL     1      -0.699   2.438   0.000  1.00  0.00     0.013 A 
HETATM    8  C   UNL     1       0.699   2.438   0.000  1.00  0.00     0.013 A 
HETATM    9  C   UNL     1       0.699  -2.421  -0.000  1.00  0.00     0.013 A 
HETATM   10  C   UNL     1      -0.699  -2.421  -0.000  1.00  0.00     0.013 A 
HETATM   11  C   UNL     1       3.514   0.008   0.000  1.00  0.00     0.002 A 
HETATM   12  C   UNL     1      -3.514   0.009  -0.001  1.00  0.00     0.002 A 
HETATM   13  C   UNL     1       2.818  -1.200   0.000  1.00  0.00     0.012 A 
HETATM   14  C   UNL     1      -2.818   1.217  -0.000  1.00  0.00     0.012 A 
HETATM   15  C   UNL     1       2.818   1.217   0.000  1.00  0.00     0.012 A 
HETATM   16  C   UNL     1      -2.818  -1.200  -0.001  1.00  0.00     0.012 A 
ENDROOT
TORSDOF 0
