REMARK  2 active torsions:
REMARK  status: ('A' for Active; 'I' for Inactive)
REMARK       I    between atoms: N_1  and  C_3 
REMARK       I    between atoms: C_3  and  N_7 
REMARK    1  A    between atoms: C_6  and  C_10 
REMARK    2  A    between atoms: N_7  and  C_14 
ROOT
HETATM    1  N   UNL     1      -0.624  -0.959   0.142  1.00  0.00    -0.255 N 
HETATM    2  C   UNL     1       0.696  -1.346   0.350  1.00  0.00     0.291 C 
HETATM    3  C   UNL     1      -1.375  -1.726  -0.683  1.00  0.00     0.326 C 
HETATM    4  S   UNL     1       1.757   0.074   0.408  1.00  0.00    -0.057 SA
HETATM    5  C   UNL     1      -0.823   0.441   0.446  1.00  0.00     0.113 C 
HETATM    6  C   UNL     1       0.418   1.206  -0.038  1.00  0.00     0.113 C 
HETATM    7  N   UNL     1      -2.613  -1.413  -1.107  1.00  0.00    -0.338 N 
HETATM    8  O   UNL     1       1.147  -2.458   0.565  1.00  0.00    -0.260 OA
HETATM    9  O   UNL     1      -0.972  -2.794  -1.156  1.00  0.00    -0.247 OA
HETATM   10  C   UNL     1      -1.116   0.643   1.937  1.00  0.00     0.034 C 
HETATM   11  H   UNL     1      -2.869  -2.198  -1.697  1.00  0.00     0.164 HD
ENDROOT
BRANCH   7  12
HETATM   12  C   UNL     1      -3.764  -0.535  -0.803  1.00  0.00     0.086 C 
HETATM   13  C   UNL     1      -5.036  -1.229  -1.359  1.00  0.00     0.025 C 
HETATM   14  C   UNL     1      -5.040  -1.297  -2.898  1.00  0.00     0.002 C 
HETATM   15  C   UNL     1      -4.793   0.057  -3.564  1.00  0.00     0.000 C 
HETATM   16  C   UNL     1      -3.615   0.804  -2.956  1.00  0.00     0.002 C 
HETATM   17  C   UNL     1      -3.750   0.870  -1.442  1.00  0.00     0.025 C 
ENDBRANCH   7  12
BRANCH   6  18
HETATM   18  C   UNL     1       0.344   1.566  -1.521  1.00  0.00    -0.042 A 
HETATM   19  C   UNL     1       0.591   0.646  -2.558  1.00  0.00     0.010 A 
HETATM   20  C   UNL     1       0.455   1.015  -3.901  1.00  0.00     0.024 A 
HETATM   21  C   UNL     1       0.062   2.307  -4.229  1.00  0.00     0.034 A 
HETATM   22  C   UNL     1      -0.194   3.235  -3.224  1.00  0.00     0.024 A 
HETATM   23 CL   UNL     1      -0.115   2.757  -5.879  1.00  0.00    -0.084 Cl
HETATM   24  C   UNL     1      -0.056   2.867  -1.881  1.00  0.00     0.010 A 
ENDBRANCH   6  18
TORSDOF 2
