REMARK  2 active torsions:
REMARK  status: ('A' for Active; 'I' for Inactive)
REMARK    1  A    between atoms: C_1  and  N_5 
REMARK    2  A    between atoms: C_4  and  C_8 
REMARK       I    between atoms: N_5  and  C_7 
REMARK       I    between atoms: C_7  and  N_10 
ROOT
HETATM    1  C   UNL     1      -0.094  -1.589   0.002  1.00  0.00     0.199 A 
HETATM    2  S   UNL     1       1.570  -1.183   0.058  1.00  0.00    -0.032 SA
HETATM    3  N   UNL     1      -0.874  -0.527  -0.029  1.00  0.00    -0.123 NA
HETATM    4  C   UNL     1       1.141   0.479   0.003  1.00  0.00     0.108 A 
HETATM    5  N   UNL     1      -0.166   0.664  -0.031  1.00  0.00    -0.144 NA
ENDROOT
BRANCH   1   6
HETATM    6  N   UNL     1      -0.467  -2.935  -0.006  1.00  0.00    -0.281 N 
HETATM    7  C   UNL     1      -1.806  -3.333  -0.019  1.00  0.00     0.323 C 
HETATM    8  O   UNL     1      -2.115  -4.528  -0.031  1.00  0.00    -0.247 OA
HETATM    9  N   UNL     1      -2.772  -2.368  -0.009  1.00  0.00    -0.347 N 
HETATM   10  C   UNL     1      -4.181  -2.678  -0.017  1.00  0.00     0.151 C 
HETATM   11  H   UNL     1      -2.491  -1.392  -0.017  1.00  0.00     0.163 HD
HETATM   12  C   UNL     1       0.470  -4.053  -0.004  1.00  0.00     0.163 C 
ENDBRANCH   1   6
BRANCH   4  13
HETATM   13  C   UNL     1       2.174   1.604  -0.006  1.00  0.00     0.002 C 
HETATM   14  C   UNL     1       1.966   2.471  -1.263  1.00  0.00     0.021 C 
HETATM   15  C   UNL     1       1.982   2.479   1.246  1.00  0.00     0.021 C 
HETATM   16  C   UNL     1       3.633   1.101  -0.016  1.00  0.00     0.021 C 
ENDBRANCH   4  13
TORSDOF 2
