REMARK  6 active torsions:
REMARK  status: ('A' for Active; 'I' for Inactive)
REMARK    1  A    between atoms: C_1  and  C_9 
REMARK    2  A    between atoms: C_1  and  C_10 
REMARK    3  A    between atoms: C_1  and  C_17 
REMARK    4  A    between atoms: N_3  and  C_9 
REMARK    5  A    between atoms: C_17  and  C_18 
REMARK    6  A    between atoms: C_18  and  C_19 
ROOT
HETATM    1  C   UNL     1       0.938  -0.075   0.022  1.00  0.00     0.081 C 
HETATM    2  C   UNL     1       0.431  -0.198   1.450  1.00  0.00    -0.004 C 
HETATM    3  N   UNL     1       0.011  -0.300   2.635  1.00  0.00    -0.100 N 
ENDROOT
BRANCH   1   4
HETATM    4  C   UNL     1       0.321   1.243  -0.571  1.00  0.00     0.180 C 
BRANCH   4   5
HETATM    5  N   UNL     1       0.504   2.515   0.101  1.00  0.00    -0.260 N 
HETATM    6  N   UNL     1       0.626   2.624   1.430  1.00  0.00    -0.165 NA
HETATM    7  C   UNL     1       0.817   3.936   1.586  1.00  0.00     0.256 A 
HETATM    8  N   UNL     1       0.774   4.662   0.433  1.00  0.00    -0.234 NA
HETATM    9  C   UNL     1       0.550   3.747  -0.483  1.00  0.00     0.229 A 
ENDBRANCH   4   5
ENDBRANCH   1   4
BRANCH   1  10
HETATM   10  C   UNL     1       0.518  -1.319  -0.817  1.00  0.00    -0.035 A 
HETATM   11  C   UNL     1       0.661  -2.617  -0.280  1.00  0.00     0.011 A 
HETATM   12  C   UNL     1       0.378  -3.756  -1.041  1.00  0.00     0.024 A 
HETATM   13  C   UNL     1      -0.053  -3.624  -2.356  1.00  0.00     0.034 A 
HETATM   14  C   UNL     1      -0.208  -2.360  -2.913  1.00  0.00     0.024 A 
HETATM   15 CL   UNL     1      -0.378  -5.021  -3.302  1.00  0.00    -0.084 Cl
HETATM   16  C   UNL     1       0.078  -1.220  -2.153  1.00  0.00     0.011 A 
ENDBRANCH   1  10
BRANCH   1  17
HETATM   17  C   UNL     1       2.509  -0.070   0.009  1.00  0.00     0.030 C 
BRANCH  17  18
HETATM   18  C   UNL     1       3.218   1.062   0.761  1.00  0.00     0.002 C 
BRANCH  18  19
HETATM   19  C   UNL     1       4.737   0.887   0.796  1.00  0.00    -0.004 C 
HETATM   20  C   UNL     1       5.390   2.028   1.565  1.00  0.00     0.005 C 
ENDBRANCH  18  19
ENDBRANCH  17  18
ENDBRANCH   1  17
TORSDOF 6
