REMARK  8 active torsions:
REMARK  status: ('A' for Active; 'I' for Inactive)
REMARK    1  A    between atoms: C_1  and  N_3 
REMARK    2  A    between atoms: C_1  and  N_7 
REMARK    3  A    between atoms: C_2  and  N_8 
REMARK    4  A    between atoms: C_2  and  N_4 
REMARK       I    between atoms: N_3  and  C_5 
REMARK       I    between atoms: N_4  and  C_6 
REMARK    5  A    between atoms: C_5  and  O_15 
REMARK    6  A    between atoms: C_6  and  O_16 
REMARK    7  A    between atoms: N_7  and  C_10 
REMARK    8  A    between atoms: N_8  and  C_9 
ROOT
HETATM    1  C   UNL     1      -1.843   2.116   0.321  1.00  0.00     0.061 C 
HETATM    2  C   UNL     1      -1.403   0.957  -0.371  1.00  0.00     0.061 C 
HETATM    3  C   UNL     1      -2.275  -0.133  -0.448  1.00  0.00     0.032 C 
HETATM    4  C   UNL     1      -3.188   2.239   0.699  1.00  0.00     0.032 C 
HETATM    5  C   UNL     1      -4.062   1.168   0.543  1.00  0.00     0.002 C 
HETATM    6  C   UNL     1      -3.594  -0.027   0.009  1.00  0.00     0.002 C 
ENDROOT
BRANCH   1   7
HETATM    7  N   UNL     1      -1.003   3.193   0.702  1.00  0.00    -0.331 N 
HETATM    8  H   UNL     1      -1.460   4.096   0.783  1.00  0.00     0.168 HD
BRANCH   7   9
HETATM    9  C   UNL     1       0.300   3.225   1.083  1.00  0.00     0.180 C 
HETATM   10  S   UNL     1       1.114   4.684   0.999  1.00  0.00    -0.040 SA
BRANCH   9  11
HETATM   11  N   UNL     1       0.975   2.127   1.520  1.00  0.00    -0.279 N 
HETATM   12  C   UNL     1       0.530   0.926   2.025  1.00  0.00     0.366 C 
HETATM   13  O   UNL     1      -0.548   0.708   2.558  1.00  0.00    -0.238 OA
HETATM   14  H   UNL     1       1.983   2.191   1.485  1.00  0.00     0.173 HD
BRANCH  12  15
HETATM   15  O   UNL     1       1.518   0.005   1.886  1.00  0.00    -0.309 OA
HETATM   16  C   UNL     1       1.093  -1.338   2.119  1.00  0.00     0.215 C 
ENDBRANCH  12  15
ENDBRANCH   9  11
ENDBRANCH   7   9
ENDBRANCH   1   7
BRANCH   2  17
HETATM   17  N   UNL     1      -0.125   1.009  -0.982  1.00  0.00    -0.331 N 
HETATM   18  H   UNL     1       0.312   1.923  -0.912  1.00  0.00     0.168 HD
BRANCH  17  19
HETATM   19  C   UNL     1       0.730   0.108  -1.544  1.00  0.00     0.180 C 
HETATM   20  S   UNL     1       2.261   0.692  -1.905  1.00  0.00    -0.040 SA
BRANCH  19  21
HETATM   21  N   UNL     1       0.293  -1.167  -1.755  1.00  0.00    -0.279 N 
HETATM   22  C   UNL     1       1.051  -2.283  -2.019  1.00  0.00     0.366 C 
HETATM   23  O   UNL     1       2.170  -2.527  -1.596  1.00  0.00    -0.238 OA
HETATM   24  H   UNL     1      -0.615  -1.229  -2.182  1.00  0.00     0.173 HD
BRANCH  22  25
HETATM   25  O   UNL     1       0.287  -3.164  -2.719  1.00  0.00    -0.309 OA
HETATM   26  C   UNL     1       0.937  -4.409  -2.986  1.00  0.00     0.215 C 
ENDBRANCH  22  25
ENDBRANCH  19  21
ENDBRANCH  17  19
ENDBRANCH   2  17
TORSDOF 8
