REMARK  5 active torsions:
REMARK  status: ('A' for Active; 'I' for Inactive)
REMARK    1  A    between atoms: C_1  and  S_4 
REMARK       I    between atoms: C_1  and  N_3 
REMARK    2  A    between atoms: N_3  and  C_5 
REMARK    3  A    between atoms: N_3  and  C_7 
REMARK    4  A    between atoms: S_4  and  C_9 
REMARK    5  A    between atoms: C_9  and  C_10 
ROOT
HETATM    1  S   UNL     1       0.316   0.130   1.681  1.00  0.00    -0.065 SA
ENDROOT
BRANCH   1   2
HETATM    2  C   UNL     1       1.007  -0.042   0.063  1.00  0.00     0.282 C 
HETATM    3  O   UNL     1       0.246  -0.149  -0.889  1.00  0.00    -0.260 OA
HETATM    4  N   UNL     1       2.407  -0.046  -0.022  1.00  0.00    -0.344 N 
BRANCH   4   5
HETATM    5  C   UNL     1       3.097  -0.194  -1.315  1.00  0.00     0.122 C 
HETATM    6  C   UNL     1       2.292  -0.357  -2.596  1.00  0.00     0.026 C 
ENDBRANCH   4   5
BRANCH   4   7
HETATM    7  C   UNL     1       3.251   0.107   1.182  1.00  0.00     0.122 C 
HETATM    8  C   UNL     1       4.764   0.091   0.995  1.00  0.00     0.026 C 
ENDBRANCH   4   7
ENDBRANCH   1   2
BRANCH   1   9
HETATM    9  C   UNL     1      -1.445   0.107   1.245  1.00  0.00     0.122 C 
BRANCH   9  10
HETATM   10  C   UNL     1      -2.322   0.254   2.466  1.00  0.00    -0.048 A 
HETATM   11  C   UNL     1      -2.861  -0.878   3.097  1.00  0.00     0.009 A 
HETATM   12  C   UNL     1      -3.676  -0.740   4.224  1.00  0.00     0.024 A 
HETATM   13  C   UNL     1      -3.950   0.529   4.730  1.00  0.00     0.034 A 
HETATM   14  C   UNL     1      -3.413   1.661   4.122  1.00  0.00     0.024 A 
HETATM   15 CL   UNL     1      -4.957   0.698   6.115  1.00  0.00    -0.084 Cl
HETATM   16  C   UNL     1      -2.600   1.524   2.995  1.00  0.00     0.009 A 
ENDBRANCH   9  10
ENDBRANCH   1   9
TORSDOF 5
