REMARK  7 active torsions:
REMARK  status: ('A' for Active; 'I' for Inactive)
REMARK    1  A    between atoms: C_1  and  S_7 
REMARK    2  A    between atoms: C_6  and  O_11 
REMARK    3  A    between atoms: S_7  and  N_10 
REMARK       I    between atoms: N_10  and  C_15 
REMARK    4  A    between atoms: O_11  and  C_12 
REMARK    5  A    between atoms: C_12  and  C_13 
REMARK       I    between atoms: C_15  and  N_17 
REMARK    6  A    between atoms: N_17  and  C_19 
REMARK    7  A    between atoms: C_21  and  O_24 
ROOT
HETATM    1  N   UNL     1      -3.977  -1.299   1.383  1.00  0.00    -0.130 NA
HETATM    2  C   UNL     1      -3.281  -2.284   2.083  1.00  0.00     0.326 C 
HETATM    3  O   UNL     1      -2.134  -2.141   2.458  1.00  0.00    -0.252 OA
HETATM    4  N   UNL     1      -4.090  -3.362   2.222  1.00  0.00    -0.141 N 
HETATM    5  H   UNL     1      -4.665  -0.855   1.989  1.00  0.00     0.151 HD
HETATM    6  H   UNL     1      -5.000  -3.319   1.795  1.00  0.00     0.189 HD
ENDROOT
BRANCH   1   7
HETATM    7  S   UNL     1      -3.349  -0.077   0.440  1.00  0.00     0.252 S 
HETATM    8  O   UNL     1      -3.972  -0.185  -0.864  1.00  0.00    -0.205 OA
HETATM    9  O   UNL     1      -3.598   1.112   1.235  1.00  0.00    -0.205 OA
BRANCH   7  10
HETATM   10  C   UNL     1      -1.606  -0.212   0.183  1.00  0.00     0.108 A 
HETATM   11  C   UNL     1      -0.893   1.002   0.302  1.00  0.00     0.028 A 
HETATM   12  C   UNL     1       0.488   1.052   0.131  1.00  0.00     0.002 A 
HETATM   13  C   UNL     1       1.180  -0.114  -0.160  1.00  0.00     0.003 A 
HETATM   14  C   UNL     1       0.481  -1.315  -0.304  1.00  0.00     0.038 A 
HETATM   15  C   UNL     1      -0.918  -1.378  -0.169  1.00  0.00     0.091 A 
BRANCH  15  16
HETATM   16  O   UNL     1      -1.397  -2.655  -0.239  1.00  0.00    -0.348 OA
BRANCH  16  17
HETATM   17  C   UNL     1      -2.431  -2.942  -1.181  1.00  0.00     0.191 C 
BRANCH  17  18
HETATM   18  C   UNL     1      -2.653  -4.453  -1.159  1.00  0.00     0.141 C 
HETATM   19 CL   UNL     1      -4.359  -4.865  -1.467  1.00  0.00    -0.128 Cl
ENDBRANCH  17  18
ENDBRANCH  16  17
ENDBRANCH  15  16
ENDBRANCH   7  10
ENDBRANCH   1   7
BRANCH   4  20
HETATM   20  C   UNL     1      -3.708  -4.642   2.583  1.00  0.00     0.735 A 
HETATM   21  N   UNL     1      -2.493  -4.901   3.040  1.00  0.00    -0.047 NA
HETATM   22  C   UNL     1      -2.222  -6.189   3.253  1.00  0.00     0.145 A 
HETATM   23  N   UNL     1      -3.068  -7.187   3.014  1.00  0.00    -0.191 NA
HETATM   24  C   UNL     1      -0.861  -6.549   3.760  1.00  0.00     0.094 C 
HETATM   25  C   UNL     1      -4.253  -6.810   2.553  1.00  0.00     0.286 A 
HETATM   26  N   UNL     1      -4.639  -5.556   2.340  1.00  0.00    -0.018 NA
BRANCH  25  27
HETATM   27  O   UNL     1      -5.114  -7.850   2.276  1.00  0.00    -0.324 OA
HETATM   28  C   UNL     1      -6.259  -7.452   1.532  1.00  0.00     0.213 C 
ENDBRANCH  25  27
ENDBRANCH   4  20
TORSDOF 7
