REMARK  5 active torsions:
REMARK  status: ('A' for Active; 'I' for Inactive)
REMARK       I    between atoms: C_2  and  N_3 
REMARK    1  A    between atoms: C_2  and  S_10 
REMARK    2  A    between atoms: N_3  and  C_4 
REMARK    3  A    between atoms: N_3  and  C_7 
REMARK    4  A    between atoms: S_10  and  C_11 
REMARK    5  A    between atoms: C_11  and  C_12 
ROOT
HETATM    1  O   UNL     1       1.963   0.317  -0.405  1.00  0.00    -0.260 OA
HETATM    2  C   UNL     1       2.990  -0.083   0.134  1.00  0.00     0.282 C 
HETATM    3  N   UNL     1       3.345   0.244   1.452  1.00  0.00    -0.335 N 
ENDROOT
BRANCH   2   4
HETATM    4  S   UNL     1       4.003  -1.214  -0.746  1.00  0.00    -0.064 SA
BRANCH   4   5
HETATM    5  C   UNL     1       4.687  -0.079  -1.975  1.00  0.00     0.138 C 
BRANCH   5   6
HETATM    6  C   UNL     1       5.099  -0.817  -3.220  1.00  0.00     0.054 C 
HETATM    7  C   UNL     1       4.290  -1.084  -4.261  1.00  0.00     0.121 C 
HETATM    8 CL   UNL     1       4.841  -1.850  -5.716  1.00  0.00    -0.069 Cl
HETATM    9 CL   UNL     1       2.603  -0.677  -4.235  1.00  0.00    -0.069 Cl
HETATM   10 CL   UNL     1       6.798  -1.228  -3.256  1.00  0.00    -0.085 Cl
ENDBRANCH   5   6
ENDBRANCH   4   5
ENDBRANCH   2   4
BRANCH   3  11
HETATM   11  C   UNL     1       4.695   0.079   2.051  1.00  0.00     0.080 C 
HETATM   12  C   UNL     1       4.997  -1.343   2.515  1.00  0.00     0.032 C 
HETATM   13  C   UNL     1       5.818   0.684   1.200  1.00  0.00     0.032 C 
ENDBRANCH   3  11
BRANCH   3  14
HETATM   14  C   UNL     1       2.202   0.631   2.326  1.00  0.00     0.080 C 
HETATM   15  C   UNL     1       1.355  -0.603   2.676  1.00  0.00     0.032 C 
HETATM   16  C   UNL     1       2.554   1.378   3.617  1.00  0.00     0.032 C 
ENDBRANCH   3  14
TORSDOF 5
