REMARK  1 active torsions:
REMARK  status: ('A' for Active; 'I' for Inactive)
REMARK    1  A    between atoms: C_3  and  O_10 
ROOT
HETATM    1 CL   UNL     1       1.056   0.051   0.073  1.00  0.00    -0.081 Cl
HETATM    2  C   UNL     1       2.772   0.029  -0.090  1.00  0.00     0.068 A 
HETATM    3  C   UNL     1       3.490   1.223  -0.171  1.00  0.00     0.089 A 
HETATM    4  C   UNL     1       4.875   1.210  -0.303  1.00  0.00     0.063 A 
HETATM    5  C   UNL     1       5.552  -0.011  -0.354  1.00  0.00     0.058 A 
HETATM    6  C   UNL     1       4.834  -1.213  -0.273  1.00  0.00     0.057 A 
HETATM    7  C   UNL     1       3.441  -1.192  -0.141  1.00  0.00     0.052 A 
HETATM    8 CL   UNL     1       5.607  -2.757  -0.330  1.00  0.00    -0.082 Cl
HETATM    9 CL   UNL     1       7.271   0.029  -0.518  1.00  0.00    -0.082 Cl
ENDROOT
BRANCH   3  10
HETATM   10  O   UNL     1       2.876   2.444  -0.126  1.00  0.00    -0.359 OA
HETATM   11  H   UNL     1       1.916   2.292  -0.033  1.00  0.00     0.217 HD
ENDBRANCH   3  10
TORSDOF 1
