REMARK  7 active torsions:
REMARK  status: ('A' for Active; 'I' for Inactive)
REMARK       I    between atoms: C_1  and  N_2 
REMARK    1  A    between atoms: C_1  and  S_4 
REMARK    2  A    between atoms: N_2  and  C_5 
REMARK    3  A    between atoms: N_2  and  C_6 
REMARK    4  A    between atoms: S_4  and  C_7 
REMARK    5  A    between atoms: C_5  and  C_8 
REMARK    6  A    between atoms: C_6  and  C_9 
REMARK    7  A    between atoms: C_7  and  C_10 
ROOT
HETATM    1  C   UNL     1       1.204   0.009  -0.094  1.00  0.00     0.281 C 
HETATM    2  N   UNL     1       0.373   0.769  -0.940  1.00  0.00    -0.343 N 
HETATM    3  O   UNL     1       0.733  -0.750   0.749  1.00  0.00    -0.260 OA
ENDROOT
BRANCH   2   4
HETATM    4  C   UNL     1      -1.101   0.678  -0.838  1.00  0.00     0.126 C 
BRANCH   4   5
HETATM    5  C   UNL     1      -1.779  -0.240   0.182  1.00  0.00     0.015 C 
HETATM    6  C   UNL     1      -3.297  -0.147   0.079  1.00  0.00     0.006 C 
ENDBRANCH   4   5
ENDBRANCH   2   4
BRANCH   2   7
HETATM    7  C   UNL     1       0.876   1.687  -1.960  1.00  0.00     0.126 C 
BRANCH   7   8
HETATM    8  C   UNL     1      -0.110   2.473  -2.833  1.00  0.00     0.015 C 
HETATM    9  C   UNL     1       0.649   3.357  -3.816  1.00  0.00     0.006 C 
ENDBRANCH   7   8
ENDBRANCH   2   7
BRANCH   1  10
HETATM   10  S   UNL     1       2.970   0.013  -0.099  1.00  0.00    -0.069 SA
BRANCH  10  11
HETATM   11  C   UNL     1       3.699   1.102  -1.310  1.00  0.00     0.084 C 
BRANCH  11  12
HETATM   12  C   UNL     1       5.227   1.046  -1.248  1.00  0.00     0.006 C 
HETATM   13  C   UNL     1       5.828   1.984  -2.289  1.00  0.00     0.006 C 
ENDBRANCH  11  12
ENDBRANCH  10  11
ENDBRANCH   1  10
TORSDOF 7
