REMARK  3 active torsions:
REMARK  status: ('A' for Active; 'I' for Inactive)
REMARK    1  A    between atoms: C_2  and  O_3 
REMARK    2  A    between atoms: C_2  and  C_4 
REMARK    3  A    between atoms: C_7  and  N_8 
ROOT
HETATM    1  C   UNL     1       2.838  -0.805  -1.152  1.00  0.00     0.037 A 
HETATM    2  C   UNL     1       3.523  -0.117  -2.158  1.00  0.00     0.020 A 
HETATM    3  C   UNL     1       4.062  -0.830  -3.232  1.00  0.00     0.024 A 
HETATM    4  C   UNL     1       3.885  -2.214  -3.333  1.00  0.00     0.005 A 
HETATM    5  C   UNL     1       3.244  -2.892  -2.291  1.00  0.00     0.024 A 
HETATM    6  C   UNL     1       2.693  -2.191  -1.216  1.00  0.00     0.020 A 
ENDROOT
BRANCH   1   7
HETATM    7  C   UNL     1       2.257  -0.080  -0.006  1.00  0.00     0.176 C 
HETATM    8  O   UNL     1       1.100  -0.203   0.350  1.00  0.00    -0.646 OA
BRANCH   7   9
HETATM    9  O   UNL     1       3.172   0.687   0.625  1.00  0.00    -0.773 OA
HETATM   10  H   UNL     1       4.086   0.556   0.308  1.00  0.00     0.167 HD
ENDBRANCH   7   9
ENDBRANCH   1   7
BRANCH   4  11
HETATM   11  N   UNL     1       4.535  -2.933  -4.343  1.00  0.00    -0.303 NA
HETATM   12  H   UNL     1       4.679  -2.403  -5.197  1.00  0.00     0.124 HD
HETATM   13  H   UNL     1       4.123  -3.843  -4.528  1.00  0.00     0.124 HD
ENDBRANCH   4  11
TORSDOF 3
