REMARK  3 active torsions:
REMARK  status: ('A' for Active; 'I' for Inactive)
REMARK    1  A    between atoms: N_1  and  C_9 
REMARK    2  A    between atoms: N_2  and  C_3 
REMARK    3  A    between atoms: C_12  and  N_13 
ROOT
HETATM    1  C   UNL     1       2.321   0.130  -0.073  1.00  0.00     0.079 A 
HETATM    2  C   UNL     1       3.045   1.330  -0.082  1.00  0.00     0.035 A 
HETATM    3  C   UNL     1       4.446   1.325  -0.116  1.00  0.00     0.025 A 
HETATM    4  C   UNL     1       5.153   0.126  -0.192  1.00  0.00     0.005 A 
HETATM    5  C   UNL     1       4.442  -1.072  -0.109  1.00  0.00     0.025 A 
HETATM    6  C   UNL     1       3.042  -1.068  -0.073  1.00  0.00     0.035 A 
ENDROOT
BRANCH   1   7
HETATM    7  N   UNL     1       0.912   0.046  -0.105  1.00  0.00    -0.150 NA
HETATM    8  N   UNL     1       0.343   1.096   0.256  1.00  0.00    -0.150 NA
BRANCH   8   9
HETATM    9  C   UNL     1      -1.065   1.026   0.153  1.00  0.00     0.079 A 
HETATM   10  C   UNL     1      -1.798  -0.172   0.134  1.00  0.00     0.033 A 
HETATM   11  C   UNL     1      -3.194  -0.159   0.045  1.00  0.00     0.002 A 
HETATM   12  C   UNL     1      -3.877   1.053  -0.019  1.00  0.00     0.000 A 
HETATM   13  C   UNL     1      -3.167   2.251   0.006  1.00  0.00     0.002 A 
HETATM   14  C   UNL     1      -1.772   2.233   0.093  1.00  0.00     0.033 A 
ENDBRANCH   8   9
ENDBRANCH   1   7
BRANCH   4  15
HETATM   15  N   UNL     1       6.551   0.123  -0.125  1.00  0.00    -0.303 NA
HETATM   16  H   UNL     1       6.978   0.965  -0.501  1.00  0.00     0.124 HD
HETATM   17  H   UNL     1       6.976  -0.719  -0.499  1.00  0.00     0.124 HD
ENDBRANCH   4  15
TORSDOF 3
