REMARK  2 active torsions:
REMARK  status: ('A' for Active; 'I' for Inactive)
REMARK    1  A    between atoms: O_1  and  C_2 
REMARK    2  A    between atoms: C_6  and  N_7 
ROOT
HETATM    1  C   UNL     1       2.452  -0.139  -0.002  1.00  0.00     0.073 A 
HETATM    2  C   UNL     1       3.122   1.078  -0.143  1.00  0.00    -0.029 A 
HETATM    3  C   UNL     1       4.521   1.048  -0.247  1.00  0.00     0.011 A 
HETATM    4  C   UNL     1       5.214  -0.168  -0.262  1.00  0.00     0.024 A 
HETATM    5  C   UNL     1       4.528  -1.381  -0.214  1.00  0.00     0.008 A 
HETATM    6  C   UNL     1       2.435   2.412  -0.123  1.00  0.00     0.051 C 
HETATM    7  C   UNL     1       3.144  -1.353  -0.030  1.00  0.00     0.060 A 
ENDROOT
BRANCH   5   8
HETATM    8  N   UNL     1       5.232  -2.588  -0.110  1.00  0.00    -0.303 NA
HETATM    9  H   UNL     1       6.141  -2.568  -0.562  1.00  0.00     0.124 HD
HETATM   10  H   UNL     1       4.684  -3.397  -0.384  1.00  0.00     0.124 HD
ENDBRANCH   5   8
BRANCH   1  11
HETATM   11  O   UNL     1       1.100  -0.230   0.183  1.00  0.00    -0.360 OA
HETATM   12  H   UNL     1       0.753   0.643   0.420  1.00  0.00     0.217 HD
ENDBRANCH   1  11
TORSDOF 2
