REMARK  0 active torsions:
REMARK  status: ('A' for Active; 'I' for Inactive)
ROOT
HETATM    1  C   UNL     1       3.740   0.333  -2.623  1.00  0.00     0.016 C 
HETATM    2  C   UNL     1       2.665   0.273  -1.510  1.00  0.00    -0.030 C 
HETATM    3  C   UNL     1       3.305  -0.540  -0.333  1.00  0.00     0.017 C 
HETATM    4  C   UNL     1       4.256   0.296   0.584  1.00  0.00     0.079 C 
HETATM    5  C   UNL     1       4.275   1.821   0.400  1.00  0.00     0.132 C 
HETATM    6  O   UNL     1       5.052   2.543   1.021  1.00  0.00    -0.298 OA
HETATM    7  C   UNL     1       3.350   2.450  -0.607  1.00  0.00     0.077 C 
HETATM    8  C   UNL     1       2.337   1.587  -0.810  1.00  0.00    -0.013 C 
HETATM    9  C   UNL     1       1.219   1.510   0.230  1.00  0.00     0.012 C 
HETATM   10  C   UNL     1       0.129   0.424   0.069  1.00  0.00     0.006 C 
HETATM   11  C   UNL     1       0.351  -0.690  -0.983  1.00  0.00    -0.004 C 
HETATM   12  C   UNL     1       1.273  -0.155  -2.104  1.00  0.00    -0.001 C 
HETATM   13  C   UNL     1       1.264  -0.976  -3.416  1.00  0.00     0.007 C 
HETATM   14  C   UNL     1      -0.163  -1.351  -3.868  1.00  0.00     0.018 C 
HETATM   15  C   UNL     1      -0.868  -2.114  -2.756  1.00  0.00     0.021 C 
HETATM   16  C   UNL     1      -0.177  -3.467  -2.511  1.00  0.00     0.024 C 
HETATM   17  C   UNL     1      -2.352  -2.413  -2.925  1.00  0.00     0.135 C 
HETATM   18  O   UNL     1      -2.882  -2.748  -3.970  1.00  0.00    -0.297 OA
HETATM   19  C   UNL     1      -3.091  -2.274  -1.597  1.00  0.00     0.079 C 
HETATM   20  C   UNL     1      -1.972  -1.871  -0.626  1.00  0.00     0.013 C 
HETATM   21  C   UNL     1      -0.990  -1.160  -1.552  1.00  0.00     0.006 C 
ENDROOT
TORSDOF 0
