REMARK  2 active torsions:
REMARK  status: ('A' for Active; 'I' for Inactive)
REMARK    1  A    between atoms: C_4  and  O_5 
REMARK    2  A    between atoms: C_15  and  O_16 
ROOT
HETATM    1  O   UNL     1       0.786   0.098   0.063  1.00  0.00    -0.286 OA
HETATM    2  C   UNL     1       2.013   0.026   0.067  1.00  0.00     0.199 A 
HETATM    3  C   UNL     1       2.770   1.302   0.070  1.00  0.00     0.055 A 
HETATM    4  C   UNL     1       2.090   2.533   0.074  1.00  0.00     0.080 A 
HETATM    5  C   UNL     1       2.790   3.736   0.077  1.00  0.00     0.037 A 
HETATM    6  C   UNL     1       4.181   3.725   0.075  1.00  0.00     0.003 A 
HETATM    7  C   UNL     1       4.867   2.510   0.070  1.00  0.00     0.008 A 
HETATM    8  C   UNL     1       4.169   1.288   0.068  1.00  0.00    -0.037 A 
HETATM    9  C   UNL     1       4.955   0.010   0.060  1.00  0.00     0.079 A 
HETATM   10  C   UNL     1       4.151  -1.262   0.067  1.00  0.00    -0.037 A 
HETATM   11  C   UNL     1       4.852  -2.483   0.070  1.00  0.00     0.008 A 
HETATM   12  C   UNL     1       4.171  -3.697   0.075  1.00  0.00     0.003 A 
HETATM   13  C   UNL     1       2.780  -3.710   0.077  1.00  0.00     0.037 A 
HETATM   14  C   UNL     1       2.071  -2.506   0.074  1.00  0.00     0.080 A 
HETATM   15  C   UNL     1       2.746  -1.272   0.070  1.00  0.00     0.055 A 
ENDROOT
BRANCH   4  16
HETATM   16  O   UNL     1       0.723   2.633   0.077  1.00  0.00    -0.360 OA
HETATM   17  H   UNL     1       0.364   1.715   0.072  1.00  0.00     0.217 HD
ENDBRANCH   4  16
BRANCH  14  18
HETATM   18  O   UNL     1       0.706  -2.562   0.077  1.00  0.00    -0.360 OA
HETATM   19  H   UNL     1       0.405  -3.484   0.076  1.00  0.00     0.217 HD
ENDBRANCH  14  18
TORSDOF 2
