REMARK  6 active torsions:
REMARK  status: ('A' for Active; 'I' for Inactive)
REMARK    1  A    between atoms: O_1  and  C_2 
REMARK    2  A    between atoms: O_1  and  C_6 
REMARK    3  A    between atoms: C_2  and  C_3 
REMARK    4  A    between atoms: C_3  and  O_4 
REMARK    5  A    between atoms: C_6  and  C_7 
REMARK    6  A    between atoms: C_7  and  O_8 
ROOT
HETATM    1  O   UNL     1       1.071  -0.093  -0.055  1.00  0.00    -0.387 OA
ENDROOT
BRANCH   1   2
HETATM    2  C   UNL     1       0.573  -1.289  -0.655  1.00  0.00     0.193 C 
BRANCH   2   3
HETATM    3  C   UNL     1      -0.951  -1.264  -0.642  1.00  0.00     0.193 C 
BRANCH   3   4
HETATM    4  O   UNL     1      -1.450  -2.460  -1.242  1.00  0.00    -0.394 OA
HETATM    5  C   UNL     1      -2.872  -2.481  -1.252  1.00  0.00     0.201 C 
ENDBRANCH   3   4
ENDBRANCH   2   3
ENDBRANCH   1   2
BRANCH   1   6
HETATM    6  C   UNL     1       2.499  -0.072  -0.044  1.00  0.00     0.193 C 
BRANCH   6   7
HETATM    7  C   UNL     1       2.981   1.221   0.604  1.00  0.00     0.193 C 
BRANCH   7   8
HETATM    8  O   UNL     1       4.407   1.243   0.615  1.00  0.00    -0.394 OA
HETATM    9  C   UNL     1       4.904   2.434   1.212  1.00  0.00     0.201 C 
ENDBRANCH   7   8
ENDBRANCH   6   7
ENDBRANCH   1   6
TORSDOF 6
