REMARK  5 active torsions:
REMARK  status: ('A' for Active; 'I' for Inactive)
REMARK    1  A    between atoms: N_2  and  C_4 
REMARK    2  A    between atoms: C_4  and  C_6 
REMARK    3  A    between atoms: C_4  and  C_8 
REMARK    4  A    between atoms: C_6  and  O_7 
REMARK    5  A    between atoms: C_8  and  O_9 
ROOT
HETATM    1  C   UNL     1       3.111  -0.587   1.242  1.00  0.00     0.195 C 
HETATM    2 BR   UNL     1       2.595   0.467   2.827  1.00  0.00    -0.050 Br
ENDROOT
BRANCH   1   3
HETATM    3  N   UNL     1       2.368   0.001   0.056  1.00  0.00    -0.129 N 
HETATM    4  O   UNL     1       1.147   0.190   0.159  1.00  0.00    -0.535 OA
HETATM    5  O   UNL     1       3.025   0.262  -0.963  1.00  0.00    -0.535 OA
ENDBRANCH   1   3
BRANCH   1   6
HETATM    6  C   UNL     1       2.714  -2.052   1.424  1.00  0.00     0.216 C 
BRANCH   6   7
HETATM    7  O   UNL     1       1.333  -2.281   1.707  1.00  0.00    -0.397 OA
HETATM    8  H   UNL     1       1.062  -1.709   2.448  1.00  0.00     0.209 HD
ENDBRANCH   6   7
ENDBRANCH   1   6
BRANCH   1   9
HETATM    9  C   UNL     1       4.623  -0.415   1.036  1.00  0.00     0.216 C 
BRANCH   9  10
HETATM   10  O   UNL     1       5.386  -0.975   2.114  1.00  0.00    -0.397 OA
HETATM   11  H   UNL     1       5.366  -0.342   2.857  1.00  0.00     0.209 HD
ENDBRANCH   9  10
ENDBRANCH   1   9
TORSDOF 5
