REMARK  4 active torsions:
REMARK  status: ('A' for Active; 'I' for Inactive)
REMARK    1  A    between atoms: C_1  and  O_3 
REMARK    2  A    between atoms: C_1  and  C_9 
REMARK    3  A    between atoms: O_3  and  O_4 
REMARK    4  A    between atoms: O_4  and  C_5 
ROOT
HETATM    1  C   UNL     1       1.009  -0.000   0.136  1.00  0.00     0.322 C 
HETATM    2  O   UNL     1       0.365  -1.038   0.166  1.00  0.00    -0.257 OA
ENDROOT
BRANCH   1   3
HETATM    3  O   UNL     1       0.528   1.272   0.157  1.00  0.00    -0.153 OA
BRANCH   3   4
HETATM    4  O   UNL     1      -0.931   1.198   0.189  1.00  0.00    -0.222 OA
BRANCH   4   5
HETATM    5  C   UNL     1      -1.420   2.546   0.261  1.00  0.00     0.086 C 
HETATM    6  C   UNL     1      -0.963   3.206   1.566  1.00  0.00     0.048 C 
HETATM    7  C   UNL     1      -0.961   3.350  -0.961  1.00  0.00     0.048 C 
HETATM    8  C   UNL     1      -2.950   2.446   0.253  1.00  0.00     0.048 C 
ENDBRANCH   4   5
ENDBRANCH   3   4
ENDBRANCH   1   3
BRANCH   1   9
HETATM    9  C   UNL     1       2.497   0.040   0.057  1.00  0.00     0.042 A 
HETATM   10  C   UNL     1       3.219   1.243   0.020  1.00  0.00     0.017 A 
HETATM   11  C   UNL     1       4.613   1.225  -0.066  1.00  0.00     0.001 A 
HETATM   12  C   UNL     1       5.294   0.010  -0.115  1.00  0.00     0.000 A 
HETATM   13  C   UNL     1       4.585  -1.190  -0.075  1.00  0.00     0.001 A 
HETATM   14  C   UNL     1       3.191  -1.177   0.011  1.00  0.00     0.017 A 
ENDBRANCH   1   9
TORSDOF 4
