REMARK  2 active torsions:
REMARK  status: ('A' for Active; 'I' for Inactive)
REMARK       I    between atoms: N_1  and  C_2 
REMARK    1  A    between atoms: N_1  and  C_6 
REMARK    2  A    between atoms: C_2  and  O_4 
ROOT
HETATM    1  C   UNL     1       2.560  -0.168  -0.051  1.00  0.00     0.710 A 
HETATM    2  N   UNL     1       3.393  -1.180  -0.051  1.00  0.00    -0.062 NA
HETATM    3  C   UNL     1       4.650  -0.639  -0.051  1.00  0.00     0.103 A 
HETATM    4  C   UNL     1       5.898  -1.277  -0.051  1.00  0.00     0.034 A 
HETATM    5  C   UNL     1       7.053  -0.487  -0.050  1.00  0.00     0.002 A 
HETATM    6  C   UNL     1       6.965   0.908  -0.050  1.00  0.00     0.002 A 
HETATM    7  C   UNL     1       5.726   1.562  -0.051  1.00  0.00     0.032 A 
HETATM    8  C   UNL     1       4.591   0.749  -0.051  1.00  0.00     0.078 A 
HETATM    9  N   UNL     1       3.246   1.022  -0.051  1.00  0.00    -0.187 N 
HETATM   10  H   UNL     1       2.834   1.941  -0.052  1.00  0.00     0.184 HD
ENDROOT
BRANCH   1  11
HETATM   11  N   UNL     1       1.192  -0.199  -0.051  1.00  0.00    -0.133 N 
HETATM   12  C   UNL     1       0.487  -1.369  -0.051  1.00  0.00     0.378 C 
HETATM   13  O   UNL     1       0.903  -2.517  -0.050  1.00  0.00    -0.238 OA
HETATM   14  H   UNL     1       0.647   0.647  -0.051  1.00  0.00     0.190 HD
BRANCH  12  15
HETATM   15  O   UNL     1      -0.842  -1.057  -0.051  1.00  0.00    -0.308 OA
HETATM   16  C   UNL     1      -1.694  -2.205  -0.050  1.00  0.00     0.215 C 
ENDBRANCH  12  15
ENDBRANCH   1  11
TORSDOF 2
