REMARK  2 active torsions:
REMARK  status: ('A' for Active; 'I' for Inactive)
REMARK    1  A    between atoms: O_1  and  C_3 
REMARK    2  A    between atoms: C_7  and  O_8 
ROOT
HETATM    1  C   UNL     1       2.463   0.133   0.068  1.00  0.00     0.091 A 
HETATM    2  C   UNL     1       3.185   1.326  -0.005  1.00  0.00     0.065 A 
HETATM    3  C   UNL     1       4.577   1.300  -0.158  1.00  0.00     0.070 A 
HETATM    4 CL   UNL     1       5.403   2.820  -0.245  1.00  0.00    -0.081 Cl
HETATM    5  C   UNL     1       5.277   0.086  -0.240  1.00  0.00     0.091 A 
HETATM    6  C   UNL     1       4.556  -1.107  -0.154  1.00  0.00     0.065 A 
HETATM    7  C   UNL     1       3.164  -1.081  -0.002  1.00  0.00     0.070 A 
HETATM    8 CL   UNL     1       2.339  -2.600   0.093  1.00  0.00    -0.081 Cl
ENDROOT
BRANCH   1   9
HETATM    9  O   UNL     1       1.102   0.056   0.211  1.00  0.00    -0.354 OA
HETATM   10  C   UNL     1       0.363   1.270   0.181  1.00  0.00     0.210 C 
ENDBRANCH   1   9
BRANCH   5  11
HETATM   11  O   UNL     1       6.636   0.163  -0.395  1.00  0.00    -0.354 OA
HETATM   12  C   UNL     1       7.351  -1.050  -0.587  1.00  0.00     0.210 C 
ENDBRANCH   5  11
TORSDOF 2
