REMARK  0 active torsions:
REMARK  status: ('A' for Active; 'I' for Inactive)
ROOT
HETATM    1  C   UNL     1       0.998   0.090   0.133  1.00  0.00     0.048 C 
HETATM    2  C   UNL     1       2.495   0.119   0.030  1.00  0.00    -0.062 A 
HETATM    3  C   UNL     1       3.188   1.335  -0.029  1.00  0.00     0.008 A 
HETATM    4  C   UNL     1       4.581   1.349  -0.134  1.00  0.00     0.024 A 
HETATM    5  C   UNL     1       5.284   0.147  -0.183  1.00  0.00     0.034 A 
HETATM    6 CL   UNL     1       7.000   0.165  -0.314  1.00  0.00    -0.084 Cl
HETATM    7  C   UNL     1       4.607  -1.068  -0.130  1.00  0.00     0.024 A 
HETATM    8  C   UNL     1       3.214  -1.082  -0.024  1.00  0.00     0.008 A 
ENDROOT
TORSDOF 0
