REMARK  4 active torsions:
REMARK  status: ('A' for Active; 'I' for Inactive)
REMARK    1  A    between atoms: N_2  and  C_4 
REMARK    2  A    between atoms: C_4  and  C_5 
REMARK    3  A    between atoms: C_5  and  C_6 
REMARK    4  A    between atoms: C_6  and  N_7 
ROOT
HETATM    1  N   UNL     1       6.403   2.653  -1.246  1.00  0.00    -0.345 N 
HETATM    2  C   UNL     1       7.055   3.184  -0.090  1.00  0.00     0.053 A 
HETATM    3  C   UNL     1       6.343   3.639   1.046  1.00  0.00     0.054 A 
HETATM    4  C   UNL     1       6.983   4.171   2.171  1.00  0.00     0.036 A 
HETATM    5 CL   UNL     1       6.046   4.723   3.506  1.00  0.00    -0.084 Cl
HETATM    6  C   UNL     1       8.362   4.260   2.220  1.00  0.00     0.025 A 
HETATM    7  C   UNL     1       9.097   3.812   1.130  1.00  0.00     0.023 A 
HETATM    8  C   UNL     1       8.461   3.284  -0.013  1.00  0.00     0.032 A 
HETATM    9  S   UNL     1       9.563   2.784  -1.311  1.00  0.00    -0.086 SA
HETATM   10  C   UNL     1       8.462   2.048  -2.491  1.00  0.00     0.032 A 
HETATM   11  C   UNL     1       7.057   2.054  -2.367  1.00  0.00     0.052 A 
HETATM   12  C   UNL     1       6.347   1.424  -3.418  1.00  0.00     0.031 A 
HETATM   13  C   UNL     1       6.980   0.836  -4.521  1.00  0.00     0.002 A 
HETATM   14  C   UNL     1       8.360   0.847  -4.613  1.00  0.00     0.002 A 
HETATM   15  C   UNL     1       9.095   1.448  -3.600  1.00  0.00     0.021 A 
ENDROOT
BRANCH   1  16
HETATM   16  C   UNL     1       4.920   2.614  -1.231  1.00  0.00     0.131 C 
BRANCH  16  17
HETATM   17  C   UNL     1       4.416   1.307  -0.604  1.00  0.00     0.050 C 
BRANCH  17  18
HETATM   18  C   UNL     1       2.889   1.214  -0.671  1.00  0.00     0.273 C 
BRANCH  18  19
HETATM   19  N   UNL     1       2.356   0.015  -0.001  1.00  0.00     0.080 N 
HETATM   20  C   UNL     1       0.894   0.086   0.073  1.00  0.00     0.309 C 
HETATM   21  C   UNL     1       2.754  -1.225  -0.673  1.00  0.00     0.309 C 
ENDBRANCH  18  19
ENDBRANCH  17  18
ENDBRANCH  16  17
ENDBRANCH   1  16
TORSDOF 4
