REMARK  4 active torsions:
REMARK  status: ('A' for Active; 'I' for Inactive)
REMARK    1  A    between atoms: C_2  and  C_3 
REMARK    2  A    between atoms: C_4  and  C_5 
REMARK    3  A    between atoms: C_5  and  C_6 
REMARK    4  A    between atoms: C_6  and  C_7 
ROOT
HETATM    1  C   UNL     1       5.093   0.215  -2.580  1.00  0.00     0.037 C 
ENDROOT
BRANCH   1   2
HETATM    2  C   UNL     1       4.383   0.136  -1.226  1.00  0.00    -0.081 C 
HETATM    3  C   UNL     1       3.040   0.129  -1.108  1.00  0.00     0.043 C 
HETATM    4  C   UNL     1       5.347   0.067  -0.067  1.00  0.00     0.043 C 
BRANCH   3   5
HETATM    5  C   UNL     1       2.253   0.055   0.143  1.00  0.00     0.259 C 
HETATM    6  O   UNL     1       1.027   0.057   0.114  1.00  0.00    -0.302 OA
ENDBRANCH   3   5
ENDBRANCH   1   2
BRANCH   1   7
HETATM    7  C   UNL     1       4.188   0.289  -3.821  1.00  0.00     0.031 C 
BRANCH   7   8
HETATM    8  C   UNL     1       4.929   0.366  -5.128  1.00  0.00    -0.024 C 
HETATM    9  C   UNL     1       4.326   0.437  -6.333  1.00  0.00    -0.091 C 
HETATM   10  C   UNL     1       2.832   0.449  -6.530  1.00  0.00     0.042 C 
HETATM   11  C   UNL     1       5.120   0.512  -7.608  1.00  0.00     0.042 C 
ENDBRANCH   7   8
ENDBRANCH   1   7
TORSDOF 4
