REMARK  5 active torsions:
REMARK  status: ('A' for Active; 'I' for Inactive)
REMARK    1  A    between atoms: C_4  and  O_21 
REMARK    2  A    between atoms: C_6  and  O_22 
REMARK    3  A    between atoms: C_10  and  N_14 
REMARK    4  A    between atoms: C_11  and  O_23 
REMARK    5  A    between atoms: C_13  and  O_24 
REMARK       I    between atoms: N_14  and  C_16 
ROOT
HETATM    1  C   UNL     1       1.675  -0.434   0.225  1.00  0.00    -0.014 C 
HETATM    2  C   UNL     1       2.115  -1.732   0.787  1.00  0.00    -0.020 C 
HETATM    3  C   UNL     1       0.710   0.498   0.981  1.00  0.00     0.017 A 
HETATM    4  C   UNL     1       0.748   1.941   0.886  1.00  0.00     0.116 A 
HETATM    5  C   UNL     1       3.409  -2.056   0.992  1.00  0.00     0.068 C 
HETATM    6  C   UNL     1      -0.007   2.802   1.740  1.00  0.00     0.136 A 
HETATM    7  C   UNL     1       2.208  -0.083  -0.967  1.00  0.00     0.016 C 
HETATM    8  C   UNL     1      -0.242  -0.027   1.891  1.00  0.00    -0.041 A 
HETATM    9  C   UNL     1       4.537  -1.345   0.336  1.00  0.00     0.205 C 
HETATM   10  C   UNL     1       1.101  -2.857   0.897  1.00  0.00     0.119 C 
HETATM   11  C   UNL     1      -0.868   2.232   2.676  1.00  0.00     0.104 A 
HETATM   12  C   UNL     1       3.265  -0.753  -1.697  1.00  0.00     0.042 C 
HETATM   13  C   UNL     1       4.391  -1.253  -1.163  1.00  0.00     0.118 C 
HETATM   14  C   UNL     1      -0.985   0.847   2.721  1.00  0.00     0.047 A 
HETATM   15  C   UNL     1      -0.604  -1.478   2.117  1.00  0.00     0.042 C 
HETATM   16  O   UNL     1       5.567  -1.090   0.940  1.00  0.00    -0.285 OA
HETATM   17  C   UNL     1      -0.360  -2.436   0.974  1.00  0.00     0.034 C 
ENDROOT
BRANCH  10  18
HETATM   18  N   UNL     1       1.288  -3.689  -0.294  1.00  0.00    -0.353 N 
HETATM   19  C   UNL     1       0.852  -4.991  -0.355  1.00  0.00     0.214 C 
HETATM   20  O   UNL     1       0.382  -5.596   0.602  1.00  0.00    -0.274 OA
HETATM   21  C   UNL     1       0.987  -5.623  -1.715  1.00  0.00     0.117 C 
HETATM   22  H   UNL     1       1.522  -3.216  -1.157  1.00  0.00     0.163 HD
ENDBRANCH  10  18
BRANCH   4  23
HETATM   23  O   UNL     1       1.546   2.540  -0.071  1.00  0.00    -0.352 OA
HETATM   24  C   UNL     1       0.754   2.942  -1.198  1.00  0.00     0.210 C 
ENDBRANCH   4  23
BRANCH  13  25
HETATM   25  O   UNL     1       5.332  -1.812  -2.018  1.00  0.00    -0.352 OA
HETATM   26  C   UNL     1       6.682  -1.491  -1.701  1.00  0.00     0.210 C 
ENDBRANCH  13  25
BRANCH   6  27
HETATM   27  O   UNL     1      -0.063   4.170   1.622  1.00  0.00    -0.351 OA
HETATM   28  C   UNL     1       1.148   4.884   1.405  1.00  0.00     0.210 C 
ENDBRANCH   6  27
BRANCH  11  29
HETATM   29  O   UNL     1      -1.710   2.857   3.556  1.00  0.00    -0.353 OA
HETATM   30  C   UNL     1      -1.323   4.130   4.055  1.00  0.00     0.210 C 
ENDBRANCH  11  29
TORSDOF 5
