REMARK  3 active torsions:
REMARK  status: ('A' for Active; 'I' for Inactive)
REMARK    1  A    between atoms: O_1  and  O_2 
REMARK    2  A    between atoms: O_1  and  C_3 
REMARK    3  A    between atoms: C_3  and  C_4 
ROOT
HETATM    1  C   UNL     1       2.939   0.481  -1.415  1.00  0.00    -0.022 A 
HETATM    2  C   UNL     1       2.902   1.836  -1.800  1.00  0.00     0.010 A 
HETATM    3  C   UNL     1       3.244   2.239  -3.095  1.00  0.00     0.001 A 
HETATM    4  C   UNL     1       3.614   1.294  -4.044  1.00  0.00     0.000 A 
HETATM    5  C   UNL     1       3.637  -0.053  -3.700  1.00  0.00     0.001 A 
HETATM    6  C   UNL     1       3.300  -0.455  -2.402  1.00  0.00     0.010 A 
ENDROOT
BRANCH   1   7
HETATM    7  C   UNL     1       2.530   0.061   0.007  1.00  0.00     0.116 C 
HETATM    8  C   UNL     1       3.085   1.034   1.068  1.00  0.00     0.054 C 
HETATM    9  C   UNL     1       2.986  -1.366   0.374  1.00  0.00     0.054 C 
BRANCH   7  10
HETATM   10  O   UNL     1       1.086   0.120  -0.004  1.00  0.00    -0.228 OA
BRANCH  10  11
HETATM   11  O   UNL     1       0.604  -0.223   1.329  1.00  0.00    -0.249 OA
HETATM   12  H   UNL     1      -0.316  -0.401   1.061  1.00  0.00     0.253 HD
ENDBRANCH  10  11
ENDBRANCH   7  10
ENDBRANCH   1   7
TORSDOF 3
