REMARK  6 active torsions:
REMARK  status: ('A' for Active; 'I' for Inactive)
REMARK    1  A    between atoms: C1*_1  and  N1_2 
REMARK    2  A    between atoms: C4_5  and  N4_6 
REMARK    3  A    between atoms: C4*_11  and  C5*_12 
REMARK    4  A    between atoms: C5*_12  and  O5*_13 
REMARK    5  A    between atoms: C3*_14  and  O3*_17 
REMARK    6  A    between atoms: C2*_15  and  O2*_16 
ROOT
ATOM      1  C1*   C A   1      -0.874  -0.891   0.055  1.00  0.00     0.264 C 
ATOM      2  O4*   C A   1       0.565  -1.023  -0.141  1.00  0.00    -0.353 OA
ATOM      3  C4*   C A   1       1.139   0.303  -0.130  1.00  0.00     0.179 C 
ATOM      4  C3*   C A   1      -0.032   1.260  -0.369  1.00  0.00     0.182 C 
ATOM      5  C2*   C A   1      -1.133   0.592   0.433  1.00  0.00     0.198 C 
ENDROOT
BRANCH   1   6
ATOM      6  N1    C A   1      -1.333  -1.992   0.908  1.00  0.00    -0.278 N 
ATOM      7  C2    C A   1      -2.369  -1.826   1.827  1.00  0.00     0.351 C 
ATOM      8  N3    C A   1      -2.792  -2.914   2.554  1.00  0.00    -0.182 NA
ATOM      9  O2    C A   1      -2.899  -0.731   2.009  1.00  0.00    -0.244 OA
ATOM     10  C4    C A   1      -2.312  -4.090   2.300  1.00  0.00     0.107 C 
ATOM     11  C5    C A   1      -1.319  -4.342   1.244  1.00  0.00     0.061 C 
ATOM     12  C6    C A   1      -0.872  -3.263   0.607  1.00  0.00     0.102 C 
BRANCH  10  13
ATOM     13  N4    C A   1      -2.775  -5.130   3.056  1.00  0.00    -0.287 NA
ATOM     14  H41   C A   1      -3.595  -4.878   3.598  1.00  0.00     0.125 HD
ATOM     15  H42   C A   1      -2.853  -6.032   2.605  1.00  0.00     0.125 HD
ENDBRANCH  10  13
ENDBRANCH   1   6
BRANCH   5  16
ATOM     16  O2*   C A   1      -0.936   0.914   1.815  1.00  0.00    -0.388 OA
ATOM     17  H2*   C A   1      -1.727   0.548   2.272  1.00  0.00     0.210 HD
ENDBRANCH   5  16
BRANCH   3  18
ATOM     18  C5*   C A   1       1.888   0.496   1.197  1.00  0.00     0.198 C 
BRANCH  18  19
ATOM     19  O5*   C A   1       2.110   1.868   1.495  1.00  0.00    -0.398 OA
ATOM     20  H5*   C A   1       1.326   2.161   2.001  1.00  0.00     0.209 HD
ENDBRANCH  18  19
ENDBRANCH   3  18
BRANCH   4  21
ATOM     21  O3*   C A   1      -0.405   1.262  -1.756  1.00  0.00    -0.390 OA
ATOM     22  H3*   C A   1       0.395   1.461  -2.275  1.00  0.00     0.210 HD
ENDBRANCH   4  21
TORSDOF 6
