REMARK  0 active torsions:
REMARK  status: ('A' for Active; 'I' for Inactive)
ROOT
HETATM    1  C   UNL     1       1.166   0.199   0.158  1.00  0.00     0.153 C 
HETATM    2  N   UNL     1       2.532  -0.020  -0.314  1.00  0.00    -0.345 N 
HETATM    3  C   UNL     1       3.392   1.143  -0.203  1.00  0.00     0.399 C 
HETATM    4  N   UNL     1       4.355   1.157  -1.285  1.00  0.00     0.111 N 
HETATM    5  C   UNL     1       5.045   2.447  -1.331  1.00  0.00     0.313 C 
HETATM    6  C   UNL     1       5.317   0.091  -1.070  1.00  0.00     0.355 C 
HETATM    7  S   UNL     1       4.573  -1.520  -1.239  1.00  0.00    -0.070 SA
HETATM    8  C   UNL     1       3.074  -1.308  -0.352  1.00  0.00     0.139 C 
HETATM    9  S   UNL     1       2.350  -2.687   0.293  1.00  0.00    -0.053 SA
ENDROOT
TORSDOF 0
