REMARK  7 active torsions:
REMARK  status: ('A' for Active; 'I' for Inactive)
REMARK    1  A    between atoms: C_1  and  C_2 
REMARK    2  A    between atoms: C_2  and  C_3 
REMARK    3  A    between atoms: C_3  and  C_4 
REMARK    4  A    between atoms: C_4  and  C_5 
REMARK    5  A    between atoms: C_5  and  C_6 
REMARK    6  A    between atoms: C_6  and  C_7 
REMARK    7  A    between atoms: C_7  and  C_8 
ROOT
HETATM    1  C   UNL     1      -1.596  -2.013  -2.108  1.00  0.00     0.000 C 
ENDROOT
BRANCH   1   2
HETATM    2  C   UNL     1      -1.060  -1.007  -1.087  1.00  0.00     0.000 C 
BRANCH   2   3
HETATM    3  C   UNL     1       0.470  -0.992  -1.072  1.00  0.00    -0.000 C 
BRANCH   3   4
HETATM    4  C   UNL     1       1.006   0.012  -0.052  1.00  0.00    -0.005 C 
HETATM    5  C   UNL     1       2.526   0.031  -0.033  1.00  0.00     0.005 C 
ENDBRANCH   3   4
ENDBRANCH   2   3
ENDBRANCH   1   2
BRANCH   1   6
HETATM    6  C   UNL     1      -3.125  -2.028  -2.123  1.00  0.00     0.000 C 
BRANCH   6   7
HETATM    7  C   UNL     1      -3.661  -3.033  -3.144  1.00  0.00     0.000 C 
BRANCH   7   8
HETATM    8  C   UNL     1      -5.191  -3.048  -3.159  1.00  0.00    -0.000 C 
BRANCH   8   9
HETATM    9  C   UNL     1      -5.726  -4.053  -4.179  1.00  0.00    -0.005 C 
HETATM   10  C   UNL     1      -7.247  -4.071  -4.198  1.00  0.00     0.005 C 
ENDBRANCH   8   9
ENDBRANCH   7   8
ENDBRANCH   6   7
ENDBRANCH   1   6
TORSDOF 7
