REMARK  2 active torsions:
REMARK  status: ('A' for Active; 'I' for Inactive)
REMARK    1  A    between atoms: N_1  and  C_2 
REMARK    2  A    between atoms: C_8  and  N_9 
ROOT
HETATM    1  C   UNL     1       2.522   0.016  -0.017  1.00  0.00     0.027 A 
HETATM    2  C   UNL     1       3.230   1.226  -0.085  1.00  0.00     0.031 A 
HETATM    3  C   UNL     1       4.612   1.252  -0.315  1.00  0.00    -0.060 A 
HETATM    4  C   UNL     1       5.352   2.556  -0.373  1.00  0.00     0.048 C 
HETATM    5  C   UNL     1       5.304   0.043  -0.394  1.00  0.00     0.009 A 
HETATM    6  C   UNL     1       4.622  -1.168  -0.269  1.00  0.00     0.026 A 
HETATM    7  C   UNL     1       3.230  -1.202  -0.113  1.00  0.00     0.027 A 
ENDROOT
BRANCH   1   8
HETATM    8  N   UNL     1       1.165   0.054   0.362  1.00  0.00    -0.301 NA
HETATM    9  H   UNL     1       0.691   0.906   0.086  1.00  0.00     0.124 HD
HETATM   10  H   UNL     1       0.648  -0.778   0.117  1.00  0.00     0.124 HD
ENDBRANCH   1   8
BRANCH   7  11
HETATM   11  N   UNL     1       2.614  -2.439   0.161  1.00  0.00    -0.301 NA
HETATM   12  H   UNL     1       1.623  -2.454  -0.033  1.00  0.00     0.124 HD
HETATM   13  H   UNL     1       3.102  -3.232  -0.239  1.00  0.00     0.124 HD
ENDBRANCH   7  11
TORSDOF 2
