REMARK  3 active torsions:
REMARK  status: ('A' for Active; 'I' for Inactive)
REMARK    1  A    between atoms: O_1  and  O_2 
REMARK    2  A    between atoms: O_1  and  C_3 
REMARK    3  A    between atoms: O_2  and  C_7 
ROOT
HETATM    1  O   UNL     1       1.134   0.030   0.031  1.00  0.00    -0.230 OA
ENDROOT
BRANCH   1   2
HETATM    2  O   UNL     1       0.622  -1.016  -0.851  1.00  0.00    -0.230 OA
BRANCH   2   3
HETATM    3  C   UNL     1      -0.813  -0.957  -0.800  1.00  0.00     0.085 C 
HETATM    4  C   UNL     1      -1.310  -1.234   0.622  1.00  0.00     0.048 C 
HETATM    5  C   UNL     1      -1.310   0.398  -1.315  1.00  0.00     0.048 C 
HETATM    6  C   UNL     1      -1.308  -2.066  -1.735  1.00  0.00     0.048 C 
ENDBRANCH   2   3
ENDBRANCH   1   2
BRANCH   1   7
HETATM    7  C   UNL     1       2.569  -0.029  -0.019  1.00  0.00     0.085 C 
HETATM    8  C   UNL     1       3.064   1.080   0.915  1.00  0.00     0.048 C 
HETATM    9  C   UNL     1       3.067  -1.384   0.495  1.00  0.00     0.048 C 
HETATM   10  C   UNL     1       3.067   0.247  -1.442  1.00  0.00     0.048 C 
ENDBRANCH   1   7
TORSDOF 3
