REMARK  0 active torsions:
REMARK  status: ('A' for Active; 'I' for Inactive)
ROOT
HETATM    1  O   UNL     1       1.367  -0.145   0.684  1.00  0.00    -0.244 OA
HETATM    2  C   UNL     1       2.475  -0.103   0.168  1.00  0.00     0.358 A 
HETATM    3  N   UNL     1       3.264  -1.200  -0.185  1.00  0.00    -0.221 N 
HETATM    4  C   UNL     1       4.570  -0.824  -0.679  1.00  0.00     0.129 A 
HETATM    5  C   UNL     1       4.392   0.701  -0.744  1.00  0.00     0.272 A 
HETATM    6  O   UNL     1       5.231   1.474  -1.192  1.00  0.00    -0.269 OA
HETATM    7  C   UNL     1       5.678  -1.145   0.325  1.00  0.00     0.050 C 
HETATM    8  C   UNL     1       4.866  -1.387  -2.064  1.00  0.00     0.050 C 
HETATM    9 CL   UNL     1       2.809  -2.784   0.148  1.00  0.00     0.019 Cl
HETATM   10  N   UNL     1       3.184   1.017  -0.184  1.00  0.00    -0.168 N 
HETATM   11 CL   UNL     1       2.621   2.583   0.008  1.00  0.00     0.025 Cl
ENDROOT
TORSDOF 0
