REMARK  1 active torsions:
REMARK  status: ('A' for Active; 'I' for Inactive)
REMARK    1  A    between atoms: N_1  and  C_4 
ROOT
HETATM    1  C   UNL     1       2.417   0.026  -0.090  1.00  0.00     0.104 A 
HETATM    2  C   UNL     1       3.133   1.230  -0.139  1.00  0.00     0.038 A 
HETATM    3  C   UNL     1       4.526   1.198  -0.253  1.00  0.00     0.028 A 
HETATM    4  C   UNL     1       5.201  -0.027  -0.318  1.00  0.00     0.055 A 
HETATM    5 CL   UNL     1       6.921   0.013  -0.458  1.00  0.00    -0.083 Cl
HETATM    6  C   UNL     1       4.478  -1.227  -0.267  1.00  0.00     0.058 A 
HETATM    7 CL   UNL     1       5.249  -2.772  -0.343  1.00  0.00    -0.082 Cl
HETATM    8  C   UNL     1       3.084  -1.204  -0.153  1.00  0.00     0.061 A 
ENDROOT
BRANCH   1   9
HETATM    9  N   UNL     1       0.954   0.055   0.029  1.00  0.00    -0.116 N 
HETATM   10  O   UNL     1       0.364  -1.030   0.121  1.00  0.00    -0.532 OA
HETATM   11  O   UNL     1       0.399   1.163   0.031  1.00  0.00    -0.532 OA
ENDBRANCH   1   9
TORSDOF 1
