REMARK  3 active torsions:
REMARK  status: ('A' for Active; 'I' for Inactive)
REMARK    1  A    between atoms: O_1  and  C_2 
REMARK    2  A    between atoms: C_2  and  C_3 
REMARK    3  A    between atoms: C_2  and  C_5 
ROOT
HETATM    1  C   UNL     1       2.542  -0.030  -0.026  1.00  0.00     0.145 C 
ENDROOT
BRANCH   1   2
HETATM    2  O   UNL     1       1.106  -0.042   0.029  1.00  0.00    -0.393 OA
HETATM    3  H   UNL     1       0.803  -0.648  -0.675  1.00  0.00     0.210 HD
ENDBRANCH   1   2
BRANCH   1   4
HETATM    4  C   UNL     1       3.000   0.340  -1.440  1.00  0.00     0.147 C 
HETATM    5 CL   UNL     1       2.409  -0.875  -2.614  1.00  0.00    -0.128 Cl
ENDBRANCH   1   4
BRANCH   1   6
HETATM    6  C   UNL     1       3.036   0.969   1.022  1.00  0.00     0.147 C 
HETATM    7 CL   UNL     1       4.806   0.957   1.188  1.00  0.00    -0.128 Cl
ENDBRANCH   1   6
TORSDOF 3
