REMARK  5 active torsions:
REMARK  status: ('A' for Active; 'I' for Inactive)
REMARK    1  A    between atoms: O_1  and  O_2 
REMARK    2  A    between atoms: O_1  and  C_12 
REMARK    3  A    between atoms: O_2  and  C_3 
REMARK    4  A    between atoms: C_3  and  C_4 
REMARK    5  A    between atoms: C_12  and  C_13 
ROOT
HETATM    1  O   UNL     1       1.057   0.115   0.073  1.00  0.00    -0.224 OA
ENDROOT
BRANCH   1   2
HETATM    2  O   UNL     1       0.523   0.400  -1.263  1.00  0.00    -0.224 OA
BRANCH   2   3
HETATM    3  C   UNL     1      -0.921   0.350  -1.175  1.00  0.00     0.116 C 
HETATM    4  C   UNL     1      -1.384   1.419  -0.168  1.00  0.00     0.054 C 
HETATM    5  C   UNL     1      -1.419   0.752  -2.574  1.00  0.00     0.054 C 
BRANCH   3   6
HETATM    6  C   UNL     1      -1.430  -1.065  -0.876  1.00  0.00    -0.022 A 
HETATM    7  C   UNL     1      -0.649  -2.190  -1.200  1.00  0.00     0.010 A 
HETATM    8  C   UNL     1      -1.099  -3.486  -0.940  1.00  0.00     0.001 A 
HETATM    9  C   UNL     1      -2.353  -3.686  -0.372  1.00  0.00     0.000 A 
HETATM   10  C   UNL     1      -3.156  -2.590  -0.070  1.00  0.00     0.001 A 
HETATM   11  C   UNL     1      -2.701  -1.292  -0.321  1.00  0.00     0.010 A 
ENDBRANCH   3   6
ENDBRANCH   2   3
ENDBRANCH   1   2
BRANCH   1  12
HETATM   12  C   UNL     1       2.495   0.192   0.002  1.00  0.00     0.116 C 
HETATM   13  C   UNL     1       3.041  -0.807  -1.040  1.00  0.00     0.054 C 
HETATM   14  C   UNL     1       2.900   1.615  -0.428  1.00  0.00     0.054 C 
BRANCH  12  15
HETATM   15  C   UNL     1       2.986  -0.192   1.407  1.00  0.00    -0.022 A 
HETATM   16  C   UNL     1       3.611   0.722   2.274  1.00  0.00     0.010 A 
HETATM   17  C   UNL     1       4.051   0.334   3.544  1.00  0.00     0.001 A 
HETATM   18  C   UNL     1       3.874  -0.976   3.979  1.00  0.00     0.000 A 
HETATM   19  C   UNL     1       3.239  -1.894   3.151  1.00  0.00     0.001 A 
HETATM   20  C   UNL     1       2.790  -1.503   1.886  1.00  0.00     0.010 A 
ENDBRANCH  12  15
ENDBRANCH   1  12
TORSDOF 5
