REMARK  1 active torsions:
REMARK  status: ('A' for Active; 'I' for Inactive)
REMARK    1  A    between atoms: C_1  and  C_7 
ROOT
HETATM    1  C   UNL     1      -1.411  -0.040  -0.082  1.00  0.00    -0.025 A 
HETATM    2  C   UNL     1      -0.735   1.188   0.034  1.00  0.00     0.010 A 
HETATM    3  C   UNL     1       0.662   1.238   0.080  1.00  0.00     0.001 A 
HETATM    4  C   UNL     1       1.409   0.065   0.030  1.00  0.00     0.000 A 
HETATM    5  C   UNL     1       0.762  -1.163  -0.069  1.00  0.00     0.001 A 
HETATM    6  C   UNL     1      -0.632  -1.214  -0.128  1.00  0.00     0.010 A 
ENDROOT
BRANCH   1   7
HETATM    7  C   UNL     1      -2.920  -0.170  -0.136  1.00  0.00     0.211 C 
HETATM    8 CL   UNL     1      -3.537  -0.845   1.396  1.00  0.00    -0.103 Cl
HETATM    9 CL   UNL     1      -3.796   1.335  -0.506  1.00  0.00    -0.103 Cl
ENDBRANCH   1   7
TORSDOF 1
