REMARK  6 active torsions:
REMARK  status: ('A' for Active; 'I' for Inactive)
REMARK    1  A    between atoms: O_1  and  C_2 
REMARK    2  A    between atoms: O_1  and  C_6 
REMARK    3  A    between atoms: C_2  and  C_3 
REMARK    4  A    between atoms: C_3  and  O_4 
REMARK    5  A    between atoms: C_6  and  C_7 
REMARK    6  A    between atoms: C_7  and  O_8 
ROOT
HETATM    1  O   UNL     1       0.984   0.042  -0.108  1.00  0.00    -0.387 OA
ENDROOT
BRANCH   1   2
HETATM    2  C   UNL     1       0.474   0.460  -1.375  1.00  0.00     0.193 C 
BRANCH   2   3
HETATM    3  C   UNL     1      -1.050   0.439  -1.341  1.00  0.00     0.193 C 
BRANCH   3   4
HETATM    4  O   UNL     1      -1.556   0.844  -2.613  1.00  0.00    -0.394 OA
HETATM    5  C   UNL     1      -2.977   0.851  -2.629  1.00  0.00     0.201 C 
ENDBRANCH   3   4
ENDBRANCH   2   3
ENDBRANCH   1   2
BRANCH   1   6
HETATM    6  C   UNL     1       2.410   0.073  -0.085  1.00  0.00     0.193 C 
BRANCH   6   7
HETATM    7  C   UNL     1       2.905  -0.368   1.289  1.00  0.00     0.190 C 
BRANCH   7   8
HETATM    8  O   UNL     1       4.326  -0.395   1.334  1.00  0.00    -0.399 OA
HETATM    9  H   UNL     1       4.622  -1.122   0.760  1.00  0.00     0.209 HD
ENDBRANCH   7   8
ENDBRANCH   6   7
ENDBRANCH   1   6
TORSDOF 6
