REMARK  14 active torsions:
REMARK  status: ('A' for Active; 'I' for Inactive)
REMARK    1  A    between atoms: C_2  and  O_3 
REMARK    2  A    between atoms: C_2  and  C_10 
REMARK    3  A    between atoms: O_3  and  C_4 
REMARK    4  A    between atoms: C_4  and  C_5 
REMARK    5  A    between atoms: C_5  and  C_6 
REMARK    6  A    between atoms: C_6  and  C_7 
REMARK    7  A    between atoms: C_7  and  C_8 
REMARK    8  A    between atoms: C_11  and  C_15 
REMARK    9  A    between atoms: C_15  and  O_17 
REMARK   10  A    between atoms: O_17  and  C_18 
REMARK   11  A    between atoms: C_18  and  C_19 
REMARK   12  A    between atoms: C_19  and  C_20 
REMARK   13  A    between atoms: C_20  and  C_21 
REMARK   14  A    between atoms: C_21  and  C_22 
ROOT
HETATM    1  C   UNL     1       2.972  -0.189   1.292  1.00  0.00     0.055 A 
HETATM    2  C   UNL     1       3.488   0.926   1.972  1.00  0.00     0.055 A 
HETATM    3  C   UNL     1       4.207   0.711   3.161  1.00  0.00     0.018 A 
HETATM    4  C   UNL     1       4.391  -0.584   3.660  1.00  0.00     0.001 A 
HETATM    5  C   UNL     1       3.853  -1.679   2.989  1.00  0.00     0.001 A 
HETATM    6  C   UNL     1       3.138  -1.484   1.809  1.00  0.00     0.018 A 
ENDROOT
BRANCH   1   7
HETATM    7  C   UNL     1       2.215  -0.087   0.031  1.00  0.00     0.294 C 
HETATM    8  O   UNL     1       0.999  -0.230   0.051  1.00  0.00    -0.259 OA
BRANCH   7   9
HETATM    9  O   UNL     1       2.928   0.022  -1.120  1.00  0.00    -0.317 OA
BRANCH   9  10
HETATM   10  C   UNL     1       4.367   0.046  -1.134  1.00  0.00     0.179 C 
BRANCH  10  11
HETATM   11  C   UNL     1       4.836   0.302  -2.562  1.00  0.00     0.027 C 
BRANCH  11  12
HETATM   12  C   UNL     1       6.361   0.360  -2.624  1.00  0.00     0.002 C 
BRANCH  12  13
HETATM   13  C   UNL     1       6.865   0.630  -4.041  1.00  0.00    -0.000 C 
BRANCH  13  14
HETATM   14  C   UNL     1       8.393   0.667  -4.077  1.00  0.00    -0.005 C 
HETATM   15  C   UNL     1       8.914   0.924  -5.481  1.00  0.00     0.005 C 
ENDBRANCH  13  14
ENDBRANCH  12  13
ENDBRANCH  11  12
ENDBRANCH  10  11
ENDBRANCH   9  10
ENDBRANCH   7   9
ENDBRANCH   1   7
BRANCH   2  16
HETATM   16  C   UNL     1       3.298   2.302   1.431  1.00  0.00     0.294 C 
HETATM   17  O   UNL     1       2.614   2.568   0.459  1.00  0.00    -0.259 OA
BRANCH  16  18
HETATM   18  O   UNL     1       4.041   3.204   2.126  1.00  0.00    -0.317 OA
BRANCH  18  19
HETATM   19  C   UNL     1       3.965   4.533   1.593  1.00  0.00     0.179 C 
BRANCH  19  20
HETATM   20  C   UNL     1       4.765   5.475   2.486  1.00  0.00     0.027 C 
BRANCH  20  21
HETATM   21  C   UNL     1       4.733   6.900   1.937  1.00  0.00     0.002 C 
BRANCH  21  22
HETATM   22  C   UNL     1       5.491   7.876   2.836  1.00  0.00    -0.000 C 
BRANCH  22  23
HETATM   23  C   UNL     1       5.442   9.295   2.267  1.00  0.00    -0.005 C 
HETATM   24  C   UNL     1       6.178  10.283   3.157  1.00  0.00     0.005 C 
ENDBRANCH  22  23
ENDBRANCH  21  22
ENDBRANCH  20  21
ENDBRANCH  19  20
ENDBRANCH  18  19
ENDBRANCH  16  18
ENDBRANCH   2  16
TORSDOF 14
