REMARK  5 active torsions:
REMARK  status: ('A' for Active; 'I' for Inactive)
REMARK    1  A    between atoms: O_1  and  C_2 
REMARK    2  A    between atoms: C_3  and  N_4 
REMARK    3  A    between atoms: C_7  and  C_8 
REMARK    4  A    between atoms: C_11  and  N_12 
REMARK    5  A    between atoms: C_13  and  O_14 
ROOT
HETATM    1  C   UNL     1       0.303  -0.434   1.112  1.00  0.00     0.089 C 
HETATM    2  C   UNL     1       0.197  -1.702   1.696  1.00  0.00     0.039 C 
HETATM    3  C   UNL     1      -0.436  -1.798   2.933  1.00  0.00     0.027 C 
HETATM    4  C   UNL     1      -1.062  -0.681   3.504  1.00  0.00     0.014 C 
HETATM    5  C   UNL     1      -1.059   0.573   2.866  1.00  0.00    -0.023 C 
HETATM    6  C   UNL     1      -0.354   0.675   1.655  1.00  0.00     0.051 C 
ENDROOT
BRANCH   5   7
HETATM    7  C   UNL     1      -1.772   1.736   3.442  1.00  0.00    -0.023 A 
HETATM    8  C   UNL     1      -3.028   1.586   4.054  1.00  0.00     0.014 A 
HETATM    9  C   UNL     1      -3.714   2.682   4.586  1.00  0.00     0.027 A 
HETATM   10  C   UNL     1      -3.188   3.968   4.475  1.00  0.00     0.039 A 
HETATM   11  C   UNL     1      -1.914   4.141   3.902  1.00  0.00     0.089 A 
HETATM   12  C   UNL     1      -1.222   3.033   3.393  1.00  0.00     0.051 A 
BRANCH  10  13
HETATM   13  N   UNL     1      -3.839   5.042   5.114  1.00  0.00    -0.300 NA
HETATM   14  H   UNL     1      -4.850   4.981   5.085  1.00  0.00     0.124 HD
HETATM   15  H   UNL     1      -3.480   5.931   4.769  1.00  0.00     0.124 HD
ENDBRANCH  10  13
BRANCH  11  16
HETATM   16  O   UNL     1      -1.459   5.439   3.872  1.00  0.00    -0.354 OA
HETATM   17  C   UNL     1      -0.266   5.689   3.141  1.00  0.00     0.210 C 
ENDBRANCH  11  16
ENDBRANCH   5   7
BRANCH   1  18
HETATM   18  O   UNL     1       0.989  -0.271  -0.069  1.00  0.00    -0.354 OA
HETATM   19  C   UNL     1       2.366  -0.008   0.214  1.00  0.00     0.210 C 
ENDBRANCH   1  18
BRANCH   2  20
HETATM   20  N   UNL     1       0.893  -2.805   1.170  1.00  0.00    -0.300 NA
HETATM   21  H   UNL     1       1.037  -2.690   0.167  1.00  0.00     0.124 HD
HETATM   22  H   UNL     1       0.458  -3.694   1.393  1.00  0.00     0.124 HD
ENDBRANCH   2  20
TORSDOF 5
