REMARK  7 active torsions:
REMARK  status: ('A' for Active; 'I' for Inactive)
REMARK    1  A    between atoms: C_1  and  C_2 
REMARK    2  A    between atoms: C_1  and  C_9 
REMARK    3  A    between atoms: C_2  and  C_3 
REMARK    4  A    between atoms: C_3  and  C_4 
REMARK    5  A    between atoms: C_4  and  C_5 
REMARK    6  A    between atoms: C_5  and  O_7 
REMARK    7  A    between atoms: C_9  and  O_11 
ROOT
HETATM    1  C   UNL     1       0.564  -0.657   1.244  1.00  0.00     0.010 C 
ENDROOT
BRANCH   1   2
HETATM    2  C   UNL     1       1.157  -0.019  -0.013  1.00  0.00     0.111 C 
BRANCH   2   3
HETATM    3  C   UNL     1       2.668   0.013  -0.075  1.00  0.00     0.258 C 
HETATM    4  O   UNL     1       3.281   0.493  -1.021  1.00  0.00    -0.265 OA
BRANCH   3   5
HETATM    5  O   UNL     1       3.252  -0.543   1.019  1.00  0.00    -0.326 OA
HETATM    6  C   UNL     1       4.680  -0.528   0.990  1.00  0.00     0.213 C 
ENDBRANCH   3   5
ENDBRANCH   2   3
ENDBRANCH   1   2
BRANCH   1   7
HETATM    7  C   UNL     1      -0.964  -0.635   1.201  1.00  0.00     0.010 C 
BRANCH   7   8
HETATM    8  C   UNL     1      -1.574  -1.270   2.450  1.00  0.00     0.111 C 
BRANCH   8   9
HETATM    9  C   UNL     1      -3.084  -1.247   2.405  1.00  0.00     0.258 C 
HETATM   10  O   UNL     1      -3.759  -0.785   1.496  1.00  0.00    -0.265 OA
BRANCH   9  11
HETATM   11  O   UNL     1      -3.583  -1.821   3.536  1.00  0.00    -0.326 OA
HETATM   12  C   UNL     1      -5.010  -1.848   3.589  1.00  0.00     0.213 C 
ENDBRANCH   9  11
ENDBRANCH   8   9
ENDBRANCH   7   8
ENDBRANCH   1   7
TORSDOF 7
