REMARK  9 active torsions:
REMARK  status: ('A' for Active; 'I' for Inactive)
REMARK    1  A    between atoms: C_1  and  O_4 
REMARK    2  A    between atoms: C_1  and  C_10 
REMARK    3  A    between atoms: O_4  and  O_5 
REMARK    4  A    between atoms: O_5  and  C_6 
REMARK    5  A    between atoms: C_10  and  C_11 
REMARK    6  A    between atoms: C_11  and  C_12 
REMARK    7  A    between atoms: C_12  and  O_15 
REMARK    8  A    between atoms: O_15  and  O_16 
REMARK    9  A    between atoms: O_16  and  C_17 
ROOT
HETATM    1  C   UNL     1       2.480  -0.014   0.112  1.00  0.00     0.043 C 
ENDROOT
BRANCH   1   2
HETATM    2  C   UNL     1       0.929  -0.031   0.144  1.00  0.00     0.089 C 
HETATM    3  C   UNL     1       0.393  -1.469   0.152  1.00  0.00     0.049 C 
HETATM    4  C   UNL     1       0.393   0.767   1.339  1.00  0.00     0.049 C 
BRANCH   2   5
HETATM    5  O   UNL     1       0.547   0.622  -1.086  1.00  0.00    -0.230 OA
BRANCH   5   6
HETATM    6  O   UNL     1      -0.912   0.651  -1.142  1.00  0.00    -0.230 OA
BRANCH   6   7
HETATM    7  C   UNL     1      -1.282   1.302  -2.368  1.00  0.00     0.085 C 
HETATM    8  C   UNL     1      -0.766   2.745  -2.384  1.00  0.00     0.048 C 
HETATM    9  C   UNL     1      -0.766   0.508  -3.572  1.00  0.00     0.048 C 
HETATM   10  C   UNL     1      -2.815   1.313  -2.387  1.00  0.00     0.048 C 
ENDBRANCH   6   7
ENDBRANCH   5   6
ENDBRANCH   2   5
ENDBRANCH   1   2
BRANCH   1  11
HETATM   11  C   UNL     1       3.185  -0.653   1.315  1.00  0.00     0.043 C 
BRANCH  11  12
HETATM   12  C   UNL     1       4.736  -0.636   1.282  1.00  0.00     0.089 C 
HETATM   13  C   UNL     1       5.273  -1.435   0.087  1.00  0.00     0.049 C 
HETATM   14  C   UNL     1       5.273   0.802   1.275  1.00  0.00     0.049 C 
BRANCH  12  15
HETATM   15  O   UNL     1       5.119  -1.289   2.513  1.00  0.00    -0.230 OA
BRANCH  15  16
HETATM   16  O   UNL     1       6.578  -1.318   2.568  1.00  0.00    -0.230 OA
BRANCH  16  17
HETATM   17  C   UNL     1       6.948  -1.969   3.794  1.00  0.00     0.085 C 
HETATM   18  C   UNL     1       6.432  -1.175   4.998  1.00  0.00     0.048 C 
HETATM   19  C   UNL     1       6.432  -3.412   3.811  1.00  0.00     0.048 C 
HETATM   20  C   UNL     1       8.481  -1.980   3.813  1.00  0.00     0.048 C 
ENDBRANCH  16  17
ENDBRANCH  15  16
ENDBRANCH  12  15
ENDBRANCH  11  12
ENDBRANCH   1  11
TORSDOF 9
