REMARK  6 active torsions:
REMARK  status: ('A' for Active; 'I' for Inactive)
REMARK    1  A    between atoms: O_2  and  C_3 
REMARK    2  A    between atoms: C_3  and  C_5 
REMARK    3  A    between atoms: C_5  and  C_6 
REMARK    4  A    between atoms: C_6  and  C_7 
REMARK    5  A    between atoms: C_7  and  C_8 
REMARK    6  A    between atoms: C_8  and  O_10 
ROOT
HETATM    1  C   UNL     1       5.019  -2.005   1.814  1.00  0.00     0.019 C 
ENDROOT
BRANCH   1   2
HETATM    2  C   UNL     1       4.471  -0.962   0.843  1.00  0.00     0.111 C 
BRANCH   2   3
HETATM    3  C   UNL     1       2.958  -0.965   0.846  1.00  0.00     0.258 C 
HETATM    4  O   UNL     1       2.253  -1.696   1.526  1.00  0.00    -0.265 OA
BRANCH   3   5
HETATM    5  O   UNL     1       2.493  -0.027  -0.027  1.00  0.00    -0.326 OA
HETATM    6  C   UNL     1       1.067   0.037  -0.086  1.00  0.00     0.213 C 
ENDBRANCH   3   5
ENDBRANCH   2   3
ENDBRANCH   1   2
BRANCH   1   7
HETATM    7  C   UNL     1       6.545  -2.036   1.843  1.00  0.00     0.111 C 
BRANCH   7   8
HETATM    8  C   UNL     1       7.046  -3.081   2.815  1.00  0.00     0.258 C 
HETATM    9  O   UNL     1       6.339  -3.811   3.495  1.00  0.00    -0.265 OA
BRANCH   8  10
HETATM   10  O   UNL     1       8.409  -3.089   2.823  1.00  0.00    -0.326 OA
HETATM   11  C   UNL     1       8.966  -4.052   3.719  1.00  0.00     0.213 C 
ENDBRANCH   8  10
ENDBRANCH   7   8
ENDBRANCH   1   7
TORSDOF 6
