REMARK  1 active torsions:
REMARK  status: ('A' for Active; 'I' for Inactive)
REMARK    1  A    between atoms: C_5  and  N_9 
ROOT
HETATM    1  C   UNL     1       0.935   0.008   0.138  1.00  0.00     0.049 C 
HETATM    2  C   UNL     1       2.433  -0.026  -0.009  1.00  0.00    -0.056 A 
HETATM    3  C   UNL     1       3.135   1.192  -0.045  1.00  0.00     0.010 A 
HETATM    4  C   UNL     1       4.523   1.220  -0.185  1.00  0.00     0.036 A 
HETATM    5  C   UNL     1       5.224   0.016  -0.290  1.00  0.00     0.103 A 
HETATM    6  C   UNL     1       4.543  -1.208  -0.256  1.00  0.00     0.043 A 
HETATM    7  C   UNL     1       3.143  -1.240  -0.120  1.00  0.00    -0.054 A 
HETATM    8  C   UNL     1       2.477  -2.589  -0.081  1.00  0.00     0.049 C 
ENDROOT
BRANCH   5   9
HETATM    9  N   UNL     1       6.684   0.034  -0.439  1.00  0.00    -0.116 N 
HETATM   10  O   UNL     1       7.242   1.138  -0.527  1.00  0.00    -0.532 OA
HETATM   11  O   UNL     1       7.275  -1.055  -0.469  1.00  0.00    -0.532 OA
ENDBRANCH   5   9
TORSDOF 1
