REMARK  1 active torsions:
REMARK  status: ('A' for Active; 'I' for Inactive)
REMARK    1  A    between atoms: C_6  and  N_9 
ROOT
HETATM    1  C   UNL     1       0.975   0.140  -0.062  1.00  0.00     0.049 C 
HETATM    2  C   UNL     1       2.480   0.064  -0.004  1.00  0.00    -0.054 A 
HETATM    3  C   UNL     1       3.200   1.273  -0.008  1.00  0.00     0.007 A 
HETATM    4  C   UNL     1       4.591   1.285   0.031  1.00  0.00     0.003 A 
HETATM    5  C   UNL     1       5.290   0.084   0.064  1.00  0.00     0.037 A 
HETATM    6  C   UNL     1       4.591  -1.137   0.074  1.00  0.00     0.109 A 
HETATM    7  C   UNL     1       3.173  -1.172   0.066  1.00  0.00    -0.023 A 
HETATM    8  C   UNL     1       2.406  -2.471   0.116  1.00  0.00     0.051 C 
ENDROOT
BRANCH   6   9
HETATM    9  N   UNL     1       5.410  -2.362   0.090  1.00  0.00    -0.115 N 
HETATM   10  O   UNL     1       6.526  -2.292   0.627  1.00  0.00    -0.532 OA
HETATM   11  O   UNL     1       4.963  -3.379  -0.455  1.00  0.00    -0.532 OA
ENDBRANCH   6   9
TORSDOF 1
