REMARK  1 active torsions:
REMARK  status: ('A' for Active; 'I' for Inactive)
REMARK    1  A    between atoms: O_1  and  C_2 
ROOT
HETATM    1  C   UNL     1       2.447  -0.016   0.005  1.00  0.00     0.072 A 
HETATM    2  C   UNL     1       3.119   1.208  -0.068  1.00  0.00    -0.029 A 
HETATM    3  C   UNL     1       4.519   1.183  -0.194  1.00  0.00     0.010 A 
HETATM    4  C   UNL     1       5.221  -0.025  -0.260  1.00  0.00     0.007 A 
HETATM    5  C   UNL     1       4.538  -1.240  -0.202  1.00  0.00    -0.059 A 
HETATM    6  C   UNL     1       5.269  -2.547  -0.267  1.00  0.00     0.048 C 
HETATM    7  C   UNL     1       2.457   2.554   0.004  1.00  0.00     0.051 C 
HETATM    8  C   UNL     1       3.145  -1.225  -0.065  1.00  0.00     0.043 A 
ENDROOT
BRANCH   1   9
HETATM    9  O   UNL     1       1.094  -0.137   0.146  1.00  0.00    -0.360 OA
HETATM   10  H   UNL     1       0.694   0.738   0.245  1.00  0.00     0.217 HD
ENDBRANCH   1   9
TORSDOF 1
