REMARK  5 active torsions:
REMARK  status: ('A' for Active; 'I' for Inactive)
REMARK    1  A    between atoms: C_1  and  O_3 
REMARK    2  A    between atoms: C_1  and  C_5 
REMARK    3  A    between atoms: C_5  and  C_6 
REMARK    4  A    between atoms: C_6  and  C_7 
REMARK    5  A    between atoms: C_7  and  O_9 
ROOT
HETATM    1  C   UNL     1       2.419  -0.067  -0.037  1.00  0.00     0.121 C 
ENDROOT
BRANCH   1   2
HETATM    2  C   UNL     1       0.915   0.011  -0.070  1.00  0.00     0.258 C 
HETATM    3  O   UNL     1       0.267   0.962  -0.482  1.00  0.00    -0.265 OA
BRANCH   2   4
HETATM    4  O   UNL     1       0.387  -1.142   0.428  1.00  0.00    -0.326 OA
HETATM    5  C   UNL     1      -1.041  -1.171   0.441  1.00  0.00     0.213 C 
ENDBRANCH   2   4
ENDBRANCH   1   2
BRANCH   1   6
HETATM    6  C   UNL     1       3.048   1.207  -0.588  1.00  0.00     0.121 C 
BRANCH   6   7
HETATM    7  C   UNL     1       4.551   1.130  -0.554  1.00  0.00     0.258 C 
HETATM    8  O   UNL     1       5.199   0.178  -0.143  1.00  0.00    -0.265 OA
BRANCH   7   9
HETATM    9  O   UNL     1       5.079   2.282  -1.053  1.00  0.00    -0.326 OA
HETATM   10  C   UNL     1       6.507   2.311  -1.065  1.00  0.00     0.213 C 
ENDBRANCH   7   9
ENDBRANCH   6   7
ENDBRANCH   1   6
TORSDOF 5
