REMARK  2 active torsions:
REMARK  status: ('A' for Active; 'I' for Inactive)
REMARK       I    between atoms: N_1  and  C_2 
REMARK       I    between atoms: C_2  and  N_3 
REMARK    1  A    between atoms: N_3  and  C_4 
REMARK    2  A    between atoms: N_10  and  C_11 
ROOT
HETATM    1  N   UNL     1       1.114  -0.267  -0.016  1.00  0.00    -0.117 NA
HETATM    2  C   UNL     1       2.369   0.052   0.058  1.00  0.00     0.698 C 
HETATM    3  N   UNL     1       2.893   1.096   0.760  1.00  0.00    -0.190 N 
HETATM    4  N   UNL     1       3.213  -0.643  -0.750  1.00  0.00    -0.190 N 
HETATM    5  H   UNL     1       0.579   0.405   0.540  1.00  0.00     0.206 HD
HETATM    6  H   UNL     1       3.747   1.478   0.373  1.00  0.00     0.184 HD
HETATM    7  H   UNL     1       2.711  -1.307  -1.330  1.00  0.00     0.184 HD
ENDROOT
BRANCH   3   8
HETATM    8  C   UNL     1       2.319   1.853   1.794  1.00  0.00     0.049 A 
HETATM    9  C   UNL     1       1.369   1.333   2.683  1.00  0.00     0.030 A 
HETATM   10  C   UNL     1       0.764   2.143   3.648  1.00  0.00     0.002 A 
HETATM   11  C   UNL     1       1.106   3.489   3.744  1.00  0.00     0.000 A 
HETATM   12  C   UNL     1       2.060   4.021   2.881  1.00  0.00     0.002 A 
HETATM   13  C   UNL     1       2.660   3.208   1.915  1.00  0.00     0.030 A 
ENDBRANCH   3   8
BRANCH   4  14
HETATM   14  C   UNL     1       4.602  -0.843  -0.724  1.00  0.00     0.049 A 
HETATM   15  C   UNL     1       5.234  -1.230  -1.917  1.00  0.00     0.030 A 
HETATM   16  C   UNL     1       6.620  -1.385  -1.988  1.00  0.00     0.002 A 
HETATM   17  C   UNL     1       7.402  -1.151  -0.862  1.00  0.00     0.000 A 
HETATM   18  C   UNL     1       6.795  -0.765   0.331  1.00  0.00     0.002 A 
HETATM   19  C   UNL     1       5.406  -0.608   0.397  1.00  0.00     0.030 A 
ENDBRANCH   4  14
TORSDOF 2
