REMARK  12 active torsions:
REMARK  status: ('A' for Active; 'I' for Inactive)
REMARK    1  A    between atoms: C_1  and  S_4 
REMARK    2  A    between atoms: C_10  and  C_11 
REMARK    3  A    between atoms: C_11  and  C_12 
REMARK    4  A    between atoms: C_12  and  C_13 
REMARK    5  A    between atoms: C_13  and  C_14 
REMARK    6  A    between atoms: C_14  and  C_15 
REMARK    7  A    between atoms: C_15  and  C_16 
REMARK    8  A    between atoms: C_16  and  C_17 
REMARK    9  A    between atoms: C_17  and  C_18 
REMARK   10  A    between atoms: C_18  and  C_19 
REMARK   11  A    between atoms: C_19  and  C_20 
REMARK   12  A    between atoms: C_20  and  C_21 
ROOT
HETATM    1  C   UNL     1       2.580  -0.084  -0.100  1.00  0.00     0.038 C 
ENDROOT
BRANCH   1   2
HETATM    2  C   UNL     1       1.084  -0.185   0.071  1.00  0.00    -0.058 A 
HETATM    3  C   UNL     1       0.332   0.929   0.480  1.00  0.00     0.009 A 
HETATM    4  C   UNL     1      -1.062   0.883   0.480  1.00  0.00     0.027 A 
HETATM    5  C   UNL     1      -1.706  -0.297   0.111  1.00  0.00     0.080 A 
HETATM    6  C   UNL     1      -0.974  -1.435  -0.237  1.00  0.00     0.027 A 
HETATM    7  C   UNL     1       0.420  -1.376  -0.258  1.00  0.00     0.009 A 
BRANCH   5   8
HETATM    8  S   UNL     1      -3.512  -0.350  -0.022  1.00  0.00     0.137 S 
HETATM    9  O   UNL     1      -3.713  -1.015  -1.308  1.00  0.00    -0.591 OA
HETATM   10  O   UNL     1      -3.878  -1.128   1.157  1.00  0.00    -0.591 OA
HETATM   11  O   UNL     1      -3.896   1.060   0.009  1.00  0.00    -0.591 OA
ENDBRANCH   5   8
ENDBRANCH   1   2
BRANCH   1  12
HETATM   12  C   UNL     1       2.979   0.541  -1.448  1.00  0.00     0.005 C 
BRANCH  12  13
HETATM   13  C   UNL     1       2.657   2.035  -1.608  1.00  0.00     0.000 C 
BRANCH  13  14
HETATM   14  C   UNL     1       3.347   2.946  -0.587  1.00  0.00     0.000 C 
BRANCH  14  15
HETATM   15  C   UNL     1       4.854   3.101  -0.813  1.00  0.00     0.000 C 
BRANCH  15  16
HETATM   16  C   UNL     1       5.224   3.878  -2.082  1.00  0.00     0.000 C 
BRANCH  16  17
HETATM   17  C   UNL     1       4.694   5.316  -2.131  1.00  0.00     0.000 C 
BRANCH  17  18
HETATM   18  C   UNL     1       5.183   6.216  -0.990  1.00  0.00     0.000 C 
BRANCH  18  19
HETATM   19  C   UNL     1       6.700   6.425  -0.952  1.00  0.00     0.000 C 
BRANCH  19  20
HETATM   20  C   UNL     1       7.288   7.092  -2.201  1.00  0.00    -0.000 C 
BRANCH  20  21
HETATM   21  C   UNL     1       6.724   8.479  -2.521  1.00  0.00    -0.005 C 
HETATM   22  C   UNL     1       6.989   9.500  -1.426  1.00  0.00     0.005 C 
ENDBRANCH  20  21
ENDBRANCH  19  20
ENDBRANCH  18  19
ENDBRANCH  17  18
ENDBRANCH  16  17
ENDBRANCH  15  16
ENDBRANCH  14  15
ENDBRANCH  13  14
ENDBRANCH  12  13
ENDBRANCH   1  12
TORSDOF 12
