REMARK  2 active torsions:
REMARK  status: ('A' for Active; 'I' for Inactive)
REMARK    1  A    between atoms: N_1  and  C_2 
REMARK    2  A    between atoms: N_1  and  C_8 
ROOT
HETATM    1  C   UNL     1       0.500  -0.051  -1.451  1.00  0.00     0.008 A 
HETATM    2  C   UNL     1       0.623  -1.294  -2.083  1.00  0.00     0.023 A 
HETATM    3  C   UNL     1      -0.084  -1.585  -3.255  1.00  0.00     0.002 A 
HETATM    4  C   UNL     1      -0.951  -0.643  -3.802  1.00  0.00     0.000 A 
HETATM    5  C   UNL     1      -1.122   0.582  -3.165  1.00  0.00     0.002 A 
HETATM    6  C   UNL     1      -0.414   0.864  -1.993  1.00  0.00     0.023 A 
ENDROOT
BRANCH   1   7
HETATM    7  N   UNL     1       1.129   0.269  -0.239  1.00  0.00    -0.293 NA
HETATM    8  H   UNL     1       1.181   1.278  -0.114  1.00  0.00     0.127 HD
BRANCH   7   9
HETATM    9  C   UNL     1       2.375  -0.405   0.108  1.00  0.00     0.088 C 
HETATM   10  C   UNL     1       2.913   0.163   1.412  1.00  0.00     0.021 C 
ENDBRANCH   7   9
ENDBRANCH   1   7
TORSDOF 2
