REMARK  6 active torsions:
REMARK  status: ('A' for Active; 'I' for Inactive)
REMARK    1  A    between atoms: C_2  and  O_3 
REMARK    2  A    between atoms: C_2  and  C_4 
REMARK    3  A    between atoms: C_4  and  C_5 
REMARK    4  A    between atoms: C_4  and  C_9 
REMARK    5  A    between atoms: C_5  and  C_6 
REMARK    6  A    between atoms: C_6  and  C_7 
ROOT
HETATM    1  C   UNL     1       3.089   0.698   0.922  1.00  0.00     0.083 C 
ENDROOT
BRANCH   1   2
HETATM    2  C   UNL     1       2.325   0.084  -0.252  1.00  0.00     0.143 C 
HETATM    3  O   UNL     1       1.174   0.399  -0.526  1.00  0.00    -0.650 OA
BRANCH   2   4
HETATM    4  O   UNL     1       2.966  -0.862  -0.967  1.00  0.00    -0.776 OA
HETATM    5  H   UNL     1       3.877  -1.072  -0.701  1.00  0.00     0.167 HD
ENDBRANCH   2   4
ENDBRANCH   1   2
BRANCH   1   6
HETATM    6  C   UNL     1       2.620   0.096   2.262  1.00  0.00     0.015 C 
BRANCH   6   7
HETATM    7  C   UNL     1       1.135   0.338   2.568  1.00  0.00     0.001 C 
BRANCH   7   8
HETATM    8  C   UNL     1       0.782  -0.099   3.991  1.00  0.00    -0.005 C 
HETATM    9  C   UNL     1      -0.701   0.077   4.277  1.00  0.00     0.005 C 
ENDBRANCH   7   8
ENDBRANCH   6   7
ENDBRANCH   1   6
BRANCH   1  10
HETATM   10  C   UNL     1       4.622   0.614   0.764  1.00  0.00     0.011 C 
HETATM   11  C   UNL     1       5.395   1.488   1.743  1.00  0.00     0.006 C 
ENDBRANCH   1  10
TORSDOF 6
