REMARK  1 active torsions:
REMARK  status: ('A' for Active; 'I' for Inactive)
REMARK       I    between atoms: C_1  and  N_2 
REMARK       I    between atoms: C_1  and  N_4 
REMARK    1  A    between atoms: N_4  and  O_5 
ROOT
HETATM    1  C   UNL     1       1.054   0.090   0.084  1.00  0.00     0.337 C 
HETATM    2  N   UNL     1       0.394   0.994   0.840  1.00  0.00    -0.350 N 
HETATM    3  O   UNL     1       0.424  -0.718  -0.592  1.00  0.00    -0.245 OA
HETATM    4  N   UNL     1       2.401   0.105   0.096  1.00  0.00    -0.219 N 
HETATM    5  H   UNL     1      -0.616   0.944   0.798  1.00  0.00     0.160 HD
HETATM    6  H   UNL     1       0.792   1.700   1.431  1.00  0.00     0.160 HD
HETATM    7  H   UNL     1       2.883  -0.579  -0.477  1.00  0.00     0.199 HD
ENDROOT
BRANCH   4   8
HETATM    8  O   UNL     1       3.211   0.980   0.829  1.00  0.00    -0.286 OA
HETATM    9  H   UNL     1       2.591   1.550   1.305  1.00  0.00     0.244 HD
ENDBRANCH   4   8
TORSDOF 1
