REMARK  7 active torsions:
REMARK  status: ('A' for Active; 'I' for Inactive)
REMARK    1  A    between atoms: C_2  and  N_4 
REMARK    2  A    between atoms: N_4  and  C_5 
REMARK    3  A    between atoms: C_5  and  C_6 
REMARK    4  A    between atoms: C_6  and  O_7 
REMARK    5  A    between atoms: C_6  and  C_8 
REMARK    6  A    between atoms: C_10  and  O_15 
REMARK    7  A    between atoms: C_11  and  O_12 
ROOT
HETATM    1  C   UNL     1       6.592   1.216  -2.575  1.00  0.00    -0.025 A 
HETATM    2  C   UNL     1       7.373   1.424  -1.424  1.00  0.00     0.049 A 
HETATM    3  C   UNL     1       8.759   1.494  -1.531  1.00  0.00     0.099 A 
HETATM    4  C   UNL     1       9.378   1.383  -2.770  1.00  0.00     0.098 A 
HETATM    5  C   UNL     1       8.629   1.198  -3.921  1.00  0.00     0.040 A 
HETATM    6  C   UNL     1       7.238   1.117  -3.823  1.00  0.00     0.012 A 
ENDROOT
BRANCH   1   7
HETATM    7  C   UNL     1       5.076   1.161  -2.516  1.00  0.00     0.179 C 
BRANCH   7   8
HETATM    8  C   UNL     1       4.504   0.400  -1.291  1.00  0.00     0.306 C 
BRANCH   8   9
HETATM    9  N   UNL     1       3.035   0.282  -1.370  1.00  0.00     0.090 N 
HETATM   10  H   UNL     1       2.678   1.202  -1.648  1.00  0.00     0.316 HD
BRANCH   9  11
HETATM   11  C   UNL     1       2.430  -0.108  -0.089  1.00  0.00     0.212 C 
HETATM   12  C   UNL     1       0.910   0.028  -0.207  1.00  0.00     0.042 C 
HETATM   13  C   UNL     1       2.792  -1.541   0.304  1.00  0.00     0.042 C 
ENDBRANCH   9  11
ENDBRANCH   8   9
ENDBRANCH   7   8
BRANCH   7  14
HETATM   14  O   UNL     1       4.566   2.502  -2.503  1.00  0.00    -0.389 OA
HETATM   15  H   UNL     1       5.233   3.069  -2.927  1.00  0.00     0.210 HD
ENDBRANCH   7  14
ENDBRANCH   1   7
BRANCH   3  16
HETATM   16  O   UNL     1       9.558   1.676  -0.435  1.00  0.00    -0.358 OA
HETATM   17  H   UNL     1       8.991   1.704   0.355  1.00  0.00     0.217 HD
ENDBRANCH   3  16
BRANCH   4  18
HETATM   18  O   UNL     1      10.738   1.461  -2.863  1.00  0.00    -0.358 OA
HETATM   19  H   UNL     1      11.039   1.590  -1.942  1.00  0.00     0.217 HD
ENDBRANCH   4  18
TORSDOF 7
