REMARK  1 active torsions:
REMARK  status: ('A' for Active; 'I' for Inactive)
REMARK    1  A    between atoms: C_4  and  O_5 
ROOT
HETATM    1  O   UNL     1       0.049  -1.326   0.103  1.00  0.00    -0.324 OA
HETATM    2  C   UNL     1       1.237  -0.607   0.083  1.00  0.00     0.085 A 
HETATM    3  C   UNL     1       2.452  -1.476   0.188  1.00  0.00     0.079 C 
HETATM    4  C   UNL     1       1.280   0.738  -0.007  1.00  0.00     0.145 A 
HETATM    5  C   UNL     1      -0.016   1.486  -0.074  1.00  0.00     0.209 A 
HETATM    6  O   UNL     1      -0.081   2.708  -0.148  1.00  0.00    -0.285 OA
HETATM    7  C   UNL     1      -1.250   0.682  -0.048  1.00  0.00     0.082 A 
HETATM    8  C   UNL     1      -1.139  -0.644   0.035  1.00  0.00     0.146 A 
ENDROOT
BRANCH   4   9
HETATM    9  O   UNL     1       2.450   1.476  -0.041  1.00  0.00    -0.355 OA
HETATM   10  H   UNL     1       3.212   0.878  -0.055  1.00  0.00     0.218 HD
ENDBRANCH   4   9
TORSDOF 1
