REMARK  3 active torsions:
REMARK  status: ('A' for Active; 'I' for Inactive)
REMARK    1  A    between atoms: C_2  and  O_3 
REMARK    2  A    between atoms: C_2  and  C_5 
REMARK    3  A    between atoms: C_6  and  N_7 
ROOT
HETATM    1  C   UNL     1       2.913  -0.446  -1.105  1.00  0.00     0.060 A 
HETATM    2  C   UNL     1       3.368   0.401  -2.130  1.00  0.00     0.022 A 
HETATM    3  C   UNL     1       4.031  -0.192  -3.211  1.00  0.00     0.024 A 
HETATM    4  C   UNL     1       4.124  -1.584  -3.327  1.00  0.00     0.002 A 
HETATM    5  C   UNL     1       3.589  -2.409  -2.340  1.00  0.00     0.001 A 
HETATM    6  C   UNL     1       2.986  -1.842  -1.220  1.00  0.00     0.019 A 
ENDROOT
BRANCH   1   7
HETATM    7  C   UNL     1       2.288   0.112   0.107  1.00  0.00     0.294 C 
HETATM    8  O   UNL     1       1.124   0.487   0.080  1.00  0.00    -0.259 OA
BRANCH   7   9
HETATM    9  O   UNL     1       3.048   0.147   1.231  1.00  0.00    -0.322 OA
HETATM   10  C   UNL     1       4.478   0.042   1.163  1.00  0.00     0.213 C 
ENDBRANCH   7   9
ENDBRANCH   1   7
BRANCH   2  11
HETATM   11  N   UNL     1       3.398   1.802  -1.997  1.00  0.00    -0.302 NA
HETATM   12  H   UNL     1       2.633   2.164  -1.427  1.00  0.00     0.124 HD
HETATM   13  H   UNL     1       3.446   2.291  -2.887  1.00  0.00     0.124 HD
ENDBRANCH   2  11
TORSDOF 3
