REMARK  2 active torsions:
REMARK  status: ('A' for Active; 'I' for Inactive)
REMARK    1  A    between atoms: C_1  and  S_2 
REMARK    2  A    between atoms: C_1  and  S_5 
ROOT
HETATM    1  S   UNL     1       0.504  -0.985   1.541  1.00  0.00    -0.040 SA
HETATM    2  C   UNL     1      -1.142  -0.802   1.222  1.00  0.00     0.134 C 
HETATM    3  N   UNL     1      -2.265  -0.661   0.974  1.00  0.00    -0.184 NA
ENDROOT
BRANCH   1   4
HETATM    4  C   UNL     1       1.119  -0.139   0.061  1.00  0.00     0.180 C 
BRANCH   4   5
HETATM    5  S   UNL     1       2.932  -0.133   0.051  1.00  0.00    -0.040 SA
HETATM    6  C   UNL     1       3.134   0.698  -1.403  1.00  0.00     0.134 C 
HETATM    7  N   UNL     1       3.239   1.270  -2.405  1.00  0.00    -0.184 NA
ENDBRANCH   4   5
ENDBRANCH   1   4
TORSDOF 2
