REMARK  4 active torsions:
REMARK  status: ('A' for Active; 'I' for Inactive)
REMARK       I    between atoms: C_2  and  N_3 
REMARK    1  A    between atoms: C_2  and  C_10 
REMARK    2  A    between atoms: N_3  and  C_4 
REMARK    3  A    between atoms: C_4  and  N_5 
REMARK       I    between atoms: N_5  and  C_6 
REMARK    4  A    between atoms: C_6  and  C_8 
ROOT
HETATM    1  C   UNL     1       2.253  -1.849  -1.889  1.00  0.00     0.249 C 
ENDROOT
BRANCH   1   2
HETATM    2  N   UNL     1       2.979  -1.010  -0.988  1.00  0.00    -0.342 N 
HETATM    3  C   UNL     1       2.294  -0.204  -0.121  1.00  0.00     0.241 C 
HETATM    4  O   UNL     1       1.071  -0.150  -0.062  1.00  0.00    -0.269 OA
HETATM    5  H   UNL     1       3.982  -1.020  -0.999  1.00  0.00     0.164 HD
BRANCH   3   6
HETATM    6  C   UNL     1       3.103   0.646   0.792  1.00  0.00     0.064 C 
HETATM    7  C   UNL     1       4.437   0.728   0.880  1.00  0.00     0.017 C 
ENDBRANCH   3   6
ENDBRANCH   1   2
BRANCH   1   8
HETATM    8  N   UNL     1       3.145  -2.611  -2.707  1.00  0.00    -0.342 N 
HETATM    9  C   UNL     1       2.628  -3.476  -3.638  1.00  0.00     0.241 C 
HETATM   10  O   UNL     1       1.432  -3.650  -3.824  1.00  0.00    -0.269 OA
HETATM   11  H   UNL     1       4.139  -2.507  -2.596  1.00  0.00     0.164 HD
BRANCH   9  12
HETATM   12  C   UNL     1       3.673  -4.195  -4.410  1.00  0.00     0.064 C 
HETATM   13  C   UNL     1       3.324  -5.076  -5.357  1.00  0.00     0.017 C 
ENDBRANCH   9  12
ENDBRANCH   1   8
TORSDOF 4
