REMARK  4 active torsions:
REMARK  status: ('A' for Active; 'I' for Inactive)
REMARK    1  A    between atoms: O_1  and  C_3 
REMARK    2  A    between atoms: C_5  and  C_6 
REMARK    3  A    between atoms: C_6  and  C_7 
REMARK    4  A    between atoms: C_11  and  O_12 
ROOT
HETATM    1  C   UNL     1       2.334   0.111   0.003  1.00  0.00     0.102 A 
HETATM    2  C   UNL     1       3.028   1.336  -0.074  1.00  0.00     0.047 A 
HETATM    3  C   UNL     1       4.415   1.398  -0.280  1.00  0.00    -0.052 A 
HETATM    4  C   UNL     1       5.112   0.187  -0.382  1.00  0.00     0.010 A 
HETATM    5  C   UNL     1       4.442  -1.034  -0.291  1.00  0.00     0.040 A 
HETATM    6  C   UNL     1       3.056  -1.088  -0.109  1.00  0.00     0.101 A 
ENDROOT
BRANCH   3   7
HETATM    7  C   UNL     1       5.225   2.681  -0.364  1.00  0.00     0.065 C 
BRANCH   7   8
HETATM    8  C   UNL     1       4.503   4.002  -0.349  1.00  0.00    -0.032 C 
HETATM    9  C   UNL     1       5.111   5.166  -0.625  1.00  0.00     0.007 C 
ENDBRANCH   7   8
ENDBRANCH   3   7
BRANCH   1  10
HETATM   10  O   UNL     1       0.983   0.041   0.223  1.00  0.00    -0.353 OA
HETATM   11  C   UNL     1       0.221   1.235   0.103  1.00  0.00     0.210 C 
ENDBRANCH   1  10
BRANCH   6  12
HETATM   12  O   UNL     1       2.590  -2.376  -0.049  1.00  0.00    -0.353 OA
HETATM   13  C   UNL     1       1.192  -2.596  -0.163  1.00  0.00     0.210 C 
ENDBRANCH   6  12
TORSDOF 4
