REMARK  3 active torsions:
REMARK  status: ('A' for Active; 'I' for Inactive)
REMARK    1  A    between atoms: C_2  and  O_3 
REMARK    2  A    between atoms: C_2  and  C_5 
REMARK    3  A    between atoms: C_6  and  O_7 
ROOT
HETATM    1  C   UNL     1       2.965   0.806   1.084  1.00  0.00     0.072 A 
HETATM    2  C   UNL     1       2.696   2.179   1.158  1.00  0.00     0.082 A 
HETATM    3  C   UNL     1       3.353   2.973   2.094  1.00  0.00     0.037 A 
HETATM    4  C   UNL     1       4.257   2.394   2.986  1.00  0.00     0.003 A 
HETATM    5  C   UNL     1       4.495   1.019   2.949  1.00  0.00     0.001 A 
HETATM    6  C   UNL     1       3.847   0.223   2.004  1.00  0.00     0.020 A 
ENDROOT
BRANCH   1   7
HETATM    7  C   UNL     1       2.288  -0.011   0.051  1.00  0.00     0.295 C 
HETATM    8  O   UNL     1       1.151   0.270  -0.312  1.00  0.00    -0.259 OA
BRANCH   7   9
HETATM    9  O   UNL     1       2.982  -1.068  -0.434  1.00  0.00    -0.322 OA
HETATM   10  C   UNL     1       4.303  -0.821  -0.939  1.00  0.00     0.213 C 
ENDBRANCH   7   9
ENDBRANCH   1   7
BRANCH   2  11
HETATM   11  O   UNL     1       1.797   2.809   0.341  1.00  0.00    -0.360 OA
HETATM   12  H   UNL     1       1.229   2.127  -0.082  1.00  0.00     0.217 HD
ENDBRANCH   2  11
TORSDOF 3
