REMARK  10 active torsions:
REMARK  status: ('A' for Active; 'I' for Inactive)
REMARK    1  A    between atoms: C_2  and  C_3 
REMARK    2  A    between atoms: C_3  and  C_4 
REMARK    3  A    between atoms: C_4  and  C_5 
REMARK    4  A    between atoms: C_5  and  C_6 
REMARK    5  A    between atoms: C_5  and  C_8 
REMARK    6  A    between atoms: C_8  and  O_9 
REMARK    7  A    between atoms: O_9  and  C_10 
REMARK    8  A    between atoms: C_10  and  C_12 
REMARK    9  A    between atoms: C_17  and  C_18 
REMARK   10  A    between atoms: C_18  and  O_19 
ROOT
HETATM    1  C   UNL     1       8.352  -2.944  -3.355  1.00  0.00     0.294 C 
HETATM    2  O   UNL     1       9.148  -2.128  -2.928  1.00  0.00    -0.259 OA
ENDROOT
BRANCH   1   3
HETATM    3  O   UNL     1       7.016  -2.999  -3.135  1.00  0.00    -0.317 OA
BRANCH   3   4
HETATM    4  C   UNL     1       6.533  -2.015  -2.206  1.00  0.00     0.183 C 
BRANCH   4   5
HETATM    5  C   UNL     1       4.990  -1.932  -2.295  1.00  0.00     0.010 C 
BRANCH   5   6
HETATM    6  C   UNL     1       4.486  -0.995  -1.170  1.00  0.00     0.007 C 
BRANCH   6   7
HETATM    7  C   UNL     1       2.973  -1.020  -0.945  1.00  0.00     0.000 C 
BRANCH   7   8
HETATM    8  C   UNL     1       2.540  -0.132   0.223  1.00  0.00    -0.005 C 
HETATM    9  C   UNL     1       1.021  -0.042   0.292  1.00  0.00     0.005 C 
ENDBRANCH   7   8
ENDBRANCH   6   7
ENDBRANCH   5   6
BRANCH   5  10
HETATM   10  C   UNL     1       4.594  -1.494  -3.728  1.00  0.00     0.002 C 
HETATM   11  C   UNL     1       3.129  -1.674  -4.099  1.00  0.00     0.005 C 
ENDBRANCH   5  10
ENDBRANCH   4   5
ENDBRANCH   3   4
ENDBRANCH   1   3
BRANCH   1  12
HETATM   12  C   UNL     1       8.680  -3.929  -4.399  1.00  0.00     0.056 A 
HETATM   13  C   UNL     1       9.055  -3.393  -5.643  1.00  0.00     0.018 A 
HETATM   14  C   UNL     1       9.358  -4.237  -6.707  1.00  0.00     0.001 A 
HETATM   15  C   UNL     1       9.305  -5.616  -6.528  1.00  0.00     0.001 A 
HETATM   16  C   UNL     1       8.963  -6.155  -5.281  1.00  0.00     0.019 A 
HETATM   17  C   UNL     1       8.637  -5.319  -4.195  1.00  0.00     0.053 A 
BRANCH  17  18
HETATM   18  C   UNL     1       8.339  -5.869  -2.837  1.00  0.00     0.177 C 
HETATM   19  O   UNL     1       8.365  -5.193  -1.823  1.00  0.00    -0.646 OA
BRANCH  18  20
HETATM   20  O   UNL     1       8.056  -7.188  -2.782  1.00  0.00    -0.773 OA
HETATM   21  H   UNL     1       7.940  -7.668  -3.617  1.00  0.00     0.167 HD
ENDBRANCH  18  20
ENDBRANCH  17  18
ENDBRANCH   1  12
TORSDOF 10
