REMARK  4 active torsions:
REMARK  status: ('A' for Active; 'I' for Inactive)
REMARK    1  A    between atoms: C_1  and  C_3 
REMARK    2  A    between atoms: C_1  and  C_5 
REMARK    3  A    between atoms: C_5  and  C_6 
REMARK    4  A    between atoms: C_6  and  C_7 
ROOT
HETATM    1  C   UNL     1       2.437   0.014  -0.068  1.00  0.00     0.041 C 
ENDROOT
BRANCH   1   2
HETATM    2  C   UNL     1       0.908   0.002  -0.050  1.00  0.00    -0.068 C 
HETATM    3  C   UNL     1       0.149   0.599  -0.987  1.00  0.00     0.019 C 
BRANCH   2   4
HETATM    4  C   UNL     1       0.334  -0.720   1.084  1.00  0.00    -0.004 C 
HETATM    5  C   UNL     1      -0.965  -0.896   1.361  1.00  0.00     0.012 C 
ENDBRANCH   2   4
ENDBRANCH   1   2
BRANCH   1   6
HETATM    6  C   UNL     1       3.087   0.763  -1.244  1.00  0.00     0.032 C 
BRANCH   6   7
HETATM    7  C   UNL     1       4.593   0.757  -1.234  1.00  0.00    -0.024 C 
HETATM    8  C   UNL     1       5.356   1.354  -2.172  1.00  0.00    -0.091 C 
HETATM    9  C   UNL     1       4.805   2.107  -3.355  1.00  0.00     0.042 C 
HETATM   10  C   UNL     1       6.859   1.314  -2.109  1.00  0.00     0.042 C 
ENDBRANCH   6   7
ENDBRANCH   1   6
TORSDOF 4
