REMARK  1 active torsions:
REMARK  status: ('A' for Active; 'I' for Inactive)
REMARK    1  A    between atoms: N_1  and  C_4 
ROOT
HETATM    1  C   UNL     1       2.328  -0.014  -0.065  1.00  0.00     0.108 A 
HETATM    2  C   UNL     1       3.054   1.199  -0.080  1.00  0.00     0.036 A 
HETATM    3  C   UNL     1       4.446   1.202  -0.172  1.00  0.00     0.002 A 
HETATM    4  C   UNL     1       5.131  -0.002  -0.250  1.00  0.00     0.001 A 
HETATM    5  C   UNL     1       4.425  -1.205  -0.238  1.00  0.00     0.009 A 
HETATM    6  C   UNL     1       3.014  -1.246  -0.149  1.00  0.00    -0.029 A 
HETATM    7  C   UNL     1       2.428  -2.633  -0.124  1.00  0.00     0.050 C 
ENDROOT
BRANCH   1   8
HETATM    8  N   UNL     1       0.857   0.110   0.044  1.00  0.00    -0.115 N 
HETATM    9  O   UNL     1       0.150  -0.885  -0.141  1.00  0.00    -0.532 OA
HETATM   10  O   UNL     1       0.397   1.234   0.304  1.00  0.00    -0.532 OA
ENDBRANCH   1   8
TORSDOF 1
