REMARK  7 active torsions:
REMARK  status: ('A' for Active; 'I' for Inactive)
REMARK    1  A    between atoms: N_6  and  C_7 
REMARK    2  A    between atoms: C_7  and  C_8 
REMARK    3  A    between atoms: C_8  and  C_9 
REMARK    4  A    between atoms: C_9  and  C_10 
REMARK    5  A    between atoms: C_10  and  C_11 
REMARK    6  A    between atoms: C_11  and  C_12 
REMARK    7  A    between atoms: C_12  and  C_13 
ROOT
HETATM    1  C   UNL     1       2.451  -2.349  -0.034  1.00  0.00     0.140 C 
ENDROOT
BRANCH   1   2
HETATM    2  N   UNL     1       2.982  -0.989  -0.025  1.00  0.00    -0.284 N 
HETATM    3  C   UNL     1       2.271   0.197  -0.026  1.00  0.00     0.254 A 
HETATM    4  O   UNL     1       1.062   0.371  -0.032  1.00  0.00    -0.268 OA
HETATM    5  C   UNL     1       3.204   1.345  -0.018  1.00  0.00     0.083 A 
HETATM    6  C   UNL     1       4.476   0.943  -0.011  1.00  0.00     0.074 A 
HETATM    7  S   UNL     1       4.680  -0.770  -0.014  1.00  0.00    -0.021 SA
ENDBRANCH   1   2
BRANCH   1   8
HETATM    8  C   UNL     1       0.929  -2.469  -0.046  1.00  0.00     0.021 C 
BRANCH   8   9
HETATM    9  C   UNL     1       0.465  -3.927  -0.057  1.00  0.00     0.002 C 
BRANCH   9  10
HETATM   10  C   UNL     1      -1.063  -3.995  -0.068  1.00  0.00     0.000 C 
BRANCH  10  11
HETATM   11  C   UNL     1      -1.572  -5.436  -0.080  1.00  0.00     0.000 C 
BRANCH  11  12
HETATM   12  C   UNL     1      -3.102  -5.468  -0.091  1.00  0.00    -0.000 C 
BRANCH  12  13
HETATM   13  C   UNL     1      -3.634  -6.899  -0.103  1.00  0.00    -0.005 C 
HETATM   14  C   UNL     1      -5.154  -6.924  -0.114  1.00  0.00     0.005 C 
ENDBRANCH  12  13
ENDBRANCH  11  12
ENDBRANCH  10  11
ENDBRANCH   9  10
ENDBRANCH   8   9
ENDBRANCH   1   8
TORSDOF 7
