REMARK  2 active torsions:
REMARK  status: ('A' for Active; 'I' for Inactive)
REMARK    1  A    between atoms: N_1  and  C_2 
REMARK    2  A    between atoms: C_3  and  N_4 
ROOT
HETATM    1  C   UNL     1       2.457  -0.040  -0.119  1.00  0.00     0.027 A 
HETATM    2  C   UNL     1       3.176   1.174  -0.198  1.00  0.00     0.027 A 
HETATM    3  C   UNL     1       4.576   1.133  -0.278  1.00  0.00     0.025 A 
HETATM    4  C   UNL     1       5.258  -0.083  -0.338  1.00  0.00     0.002 A 
HETATM    5  C   UNL     1       4.550  -1.277  -0.261  1.00  0.00     0.002 A 
HETATM    6  C   UNL     1       3.162  -1.253  -0.123  1.00  0.00     0.025 A 
ENDROOT
BRANCH   1   7
HETATM    7  N   UNL     1       1.080  -0.065   0.178  1.00  0.00    -0.301 NA
HETATM    8  H   UNL     1       0.581   0.762  -0.117  1.00  0.00     0.124 HD
HETATM    9  H   UNL     1       0.619  -0.923  -0.104  1.00  0.00     0.124 HD
ENDBRANCH   1   7
BRANCH   2  10
HETATM   10  N   UNL     1       2.552   2.418   0.016  1.00  0.00    -0.301 NA
HETATM   11  H   UNL     1       1.572   2.433  -0.229  1.00  0.00     0.124 HD
HETATM   12  H   UNL     1       3.065   3.202  -0.372  1.00  0.00     0.124 HD
ENDBRANCH   2  10
TORSDOF 2
