REMARK  3 active torsions:
REMARK  status: ('A' for Active; 'I' for Inactive)
REMARK    1  A    between atoms: N_1  and  C_2 
REMARK    2  A    between atoms: N_1  and  C_8 
REMARK    3  A    between atoms: C_11  and  N_12 
ROOT
HETATM    1  C   UNL     1       2.611   0.308  -0.018  1.00  0.00     0.032 A 
HETATM    2  C   UNL     1       3.516   1.317   0.311  1.00  0.00     0.031 A 
HETATM    3  C   UNL     1       4.899   1.126   0.170  1.00  0.00     0.025 A 
HETATM    4  C   UNL     1       5.411  -0.071  -0.328  1.00  0.00     0.005 A 
HETATM    5  C   UNL     1       4.524  -1.118  -0.561  1.00  0.00     0.025 A 
HETATM    6  C   UNL     1       3.143  -0.923  -0.433  1.00  0.00     0.031 A 
ENDROOT
BRANCH   1   7
HETATM    7  N   UNL     1       1.212   0.447   0.019  1.00  0.00    -0.356 N 
HETATM    8  H   UNL     1       0.734  -0.446  -0.035  1.00  0.00     0.166 HD
BRANCH   7   9
HETATM    9  C   UNL     1       0.318   1.532  -0.067  1.00  0.00     0.032 A 
HETATM   10  C   UNL     1      -1.048   1.276   0.151  1.00  0.00     0.029 A 
HETATM   11  C   UNL     1      -2.003   2.297   0.099  1.00  0.00     0.002 A 
HETATM   12  C   UNL     1      -1.605   3.604  -0.149  1.00  0.00     0.000 A 
HETATM   13  C   UNL     1      -0.258   3.883  -0.359  1.00  0.00     0.002 A 
HETATM   14  C   UNL     1       0.691   2.853  -0.326  1.00  0.00     0.029 A 
ENDBRANCH   7   9
ENDBRANCH   1   7
BRANCH   4  15
HETATM   15  N   UNL     1       6.792  -0.293  -0.367  1.00  0.00    -0.303 NA
HETATM   16  H   UNL     1       7.332   0.555  -0.511  1.00  0.00     0.124 HD
HETATM   17  H   UNL     1       7.066  -1.032  -1.007  1.00  0.00     0.124 HD
ENDBRANCH   4  15
TORSDOF 3
