REMARK  1 active torsions:
REMARK  status: ('A' for Active; 'I' for Inactive)
REMARK    1  A    between atoms: C_7  and  C_10 
ROOT
HETATM    1  O   UNL     1       1.070  -0.340  -0.038  1.00  0.00    -0.259 OA
HETATM    2  C   UNL     1       2.279  -0.133  -0.018  1.00  0.00     0.306 A 
HETATM    3  O   UNL     1       3.087  -1.240  -0.004  1.00  0.00    -0.279 OA
HETATM    4  C   UNL     1       4.482  -1.206   0.003  1.00  0.00     0.057 A 
HETATM    5  C   UNL     1       5.164  -0.066  -0.001  1.00  0.00     0.088 A 
HETATM    6  C   UNL     1       5.141  -2.546   0.011  1.00  0.00     0.077 C 
HETATM    7  C   UNL     1       2.959   1.209  -0.011  1.00  0.00     0.135 A 
HETATM    8  C   UNL     1       4.478   1.234  -0.013  1.00  0.00     0.194 A 
HETATM    9  O   UNL     1       5.237   2.200  -0.028  1.00  0.00    -0.287 OA
ENDROOT
BRANCH   7  10
HETATM   10  C   UNL     1       2.277   2.399  -0.001  1.00  0.00     0.165 C 
HETATM   11  O   UNL     1       2.714   3.587   0.007  1.00  0.00    -0.292 OA
HETATM   12  C   UNL     1       0.750   2.504   0.003  1.00  0.00     0.097 C 
ENDBRANCH   7  10
TORSDOF 1
