REMARK  12 active torsions:
REMARK  status: ('A' for Active; 'I' for Inactive)
REMARK    1  A    between atoms: S_1  and  O_5 
REMARK    2  A    between atoms: O_5  and  C_6 
REMARK    3  A    between atoms: C_6  and  C_7 
REMARK    4  A    between atoms: C_7  and  C_8 
REMARK    5  A    between atoms: C_8  and  C_9 
REMARK    6  A    between atoms: C_9  and  C_10 
REMARK    7  A    between atoms: C_10  and  C_11 
REMARK    8  A    between atoms: C_11  and  C_12 
REMARK    9  A    between atoms: C_12  and  C_13 
REMARK   10  A    between atoms: C_13  and  C_14 
REMARK   11  A    between atoms: C_14  and  C_15 
REMARK   12  A    between atoms: C_15  and  C_16 
ROOT
HETATM    1  C   UNL     1       6.612  -2.310  -1.326  1.00  0.00     0.000 C 
ENDROOT
BRANCH   1   2
HETATM    2  C   UNL     1       5.084  -2.321  -1.332  1.00  0.00     0.002 C 
BRANCH   2   3
HETATM    3  C   UNL     1       4.499  -1.095  -0.636  1.00  0.00     0.028 C 
BRANCH   3   4
HETATM    4  C   UNL     1       2.974  -1.136  -0.659  1.00  0.00     0.193 C 
BRANCH   4   5
HETATM    5  O   UNL     1       2.476   0.015  -0.005  1.00  0.00    -0.257 OA
BRANCH   5   6
HETATM    6  S   UNL     1       0.853   0.171   0.084  1.00  0.00     0.251 S 
HETATM    7  O   UNL     1       0.431   0.197  -1.314  1.00  0.00    -0.572 OA
HETATM    8  O   UNL     1       0.431  -1.017   0.822  1.00  0.00    -0.572 OA
HETATM    9  O   UNL     1       0.671   1.429   0.798  1.00  0.00    -0.572 OA
ENDBRANCH   5   6
ENDBRANCH   4   5
ENDBRANCH   3   4
ENDBRANCH   2   3
ENDBRANCH   1   2
BRANCH   1  10
HETATM   10  C   UNL     1       7.159  -3.552  -2.031  1.00  0.00     0.000 C 
BRANCH  10  11
HETATM   11  C   UNL     1       8.687  -3.570  -2.041  1.00  0.00     0.000 C 
BRANCH  11  12
HETATM   12  C   UNL     1       9.213  -4.819  -2.751  1.00  0.00     0.000 C 
BRANCH  12  13
HETATM   13  C   UNL     1      10.741  -4.846  -2.766  1.00  0.00     0.000 C 
BRANCH  13  14
HETATM   14  C   UNL     1      11.267  -6.095  -3.475  1.00  0.00     0.000 C 
BRANCH  14  15
HETATM   15  C   UNL     1      12.796  -6.117  -3.488  1.00  0.00    -0.000 C 
BRANCH  15  16
HETATM   16  C   UNL     1      13.329  -7.362  -4.195  1.00  0.00    -0.005 C 
HETATM   17  C   UNL     1      14.849  -7.383  -4.207  1.00  0.00     0.005 C 
ENDBRANCH  15  16
ENDBRANCH  14  15
ENDBRANCH  13  14
ENDBRANCH  12  13
ENDBRANCH  11  12
ENDBRANCH  10  11
ENDBRANCH   1  10
TORSDOF 12
