REMARK  4 active torsions:
REMARK  status: ('A' for Active; 'I' for Inactive)
REMARK    1  A    between atoms: C_1  and  C_4 
REMARK    2  A    between atoms: C_1  and  C_13 
REMARK    3  A    between atoms: C_8  and  O_9 
REMARK    4  A    between atoms: C_17  and  O_18 
ROOT
HETATM    1  C   UNL     1       1.181  -0.097  -0.028  1.00  0.00     0.007 C 
HETATM    2  C   UNL     1       0.625   0.616   1.237  1.00  0.00     0.025 C 
HETATM    3  C   UNL     1       0.671   0.644  -1.295  1.00  0.00     0.025 C 
ENDROOT
BRANCH   1   4
HETATM    4  C   UNL     1       0.568  -1.531   0.039  1.00  0.00    -0.043 A 
HETATM    5  C   UNL     1      -0.792  -1.730  -0.296  1.00  0.00     0.030 A 
HETATM    6  C   UNL     1      -1.394  -2.992  -0.244  1.00  0.00     0.046 A 
HETATM    7 BR   UNL     1      -3.237  -3.143  -0.667  1.00  0.00    -0.048 Br
HETATM    8  C   UNL     1      -0.652  -4.109   0.125  1.00  0.00     0.100 A 
HETATM    9  C   UNL     1       0.674  -3.938   0.511  1.00  0.00     0.046 A 
HETATM   10 BR   UNL     1       1.751  -5.416   1.020  1.00  0.00    -0.048 Br
HETATM   11  C   UNL     1       1.256  -2.658   0.522  1.00  0.00     0.030 A 
BRANCH   8  12
HETATM   12  O   UNL     1      -1.213  -5.358   0.130  1.00  0.00    -0.358 OA
HETATM   13  H   UNL     1      -2.139  -5.273  -0.157  1.00  0.00     0.217 HD
ENDBRANCH   8  12
ENDBRANCH   1   4
BRANCH   1  14
HETATM   14  C   UNL     1       2.732   0.054  -0.086  1.00  0.00    -0.043 C 
HETATM   15  C   UNL     1       3.606  -0.945  -0.551  1.00  0.00     0.030 C 
HETATM   16  C   UNL     1       4.998  -0.776  -0.504  1.00  0.00     0.046 C 
HETATM   17 BR   UNL     1       6.109  -2.240  -0.983  1.00  0.00    -0.048 Br
HETATM   18  C   UNL     1       5.561   0.434  -0.103  1.00  0.00     0.100 C 
HETATM   19  C   UNL     1       4.716   1.487   0.233  1.00  0.00     0.046 C 
HETATM   20 BR   UNL     1       5.391   3.206   0.665  1.00  0.00    -0.048 Br
HETATM   21  C   UNL     1       3.330   1.293   0.249  1.00  0.00     0.030 C 
BRANCH  18  22
HETATM   22  O   UNL     1       6.916   0.609  -0.042  1.00  0.00    -0.358 OA
HETATM   23  H   UNL     1       7.338  -0.248  -0.242  1.00  0.00     0.217 HD
ENDBRANCH  18  22
ENDBRANCH   1  14
TORSDOF 4
