REMARK  0 active torsions:
REMARK  status: ('A' for Active; 'I' for Inactive)
ROOT
HETATM    1  C   UNL     1       0.255  -0.629  -0.003  1.00  0.00     0.167 A 
HETATM    2  C   UNL     1       0.215   0.739  -0.002  1.00  0.00     0.150 A 
HETATM    3  N   UNL     1      -0.895  -1.388  -0.003  1.00  0.00    -0.286 N 
HETATM    4  C   UNL     1      -2.125  -0.740  -0.001  1.00  0.00     0.330 A 
HETATM    5  N   UNL     1      -2.111   0.641  -0.001  1.00  0.00    -0.273 N 
HETATM    6  N   UNL     1       1.532  -1.100  -0.003  1.00  0.00    -0.223 NA
HETATM    7  C   UNL     1      -1.008   1.465  -0.001  1.00  0.00     0.280 A 
HETATM    8  N   UNL     1       1.524   1.128  -0.001  1.00  0.00    -0.338 N 
HETATM    9  C   UNL     1       2.281  -0.017  -0.002  1.00  0.00     0.212 A 
HETATM   10  O   UNL     1      -3.207  -1.330   0.001  1.00  0.00    -0.246 OA
HETATM   11  O   UNL     1      -1.111   2.686   0.000  1.00  0.00    -0.265 OA
HETATM   12  C   UNL     1      -0.865  -2.835  -0.001  1.00  0.00     0.163 C 
HETATM   13  C   UNL     1       2.066   2.462   0.002  1.00  0.00     0.157 C 
HETATM   14  H   UNL     1      -3.013   1.091   0.000  1.00  0.00     0.173 HD
ENDROOT
TORSDOF 0
