REMARK  2 active torsions:
REMARK  status: ('A' for Active; 'I' for Inactive)
REMARK    1  A    between atoms: C_4  and  N_11 
REMARK    2  A    between atoms: C_6  and  N_8 
ROOT
HETATM    1  C   UNL     1      -2.312  -2.822  -0.335  1.00  0.00     0.337 C 
HETATM    2  N   UNL     1      -1.248  -2.602   0.102  1.00  0.00    -0.205 NA
HETATM    3  O   UNL     1      -3.390  -3.058  -0.743  1.00  0.00    -0.260 OA
ENDROOT
BRANCH   2   4
HETATM    4  C   UNL     1      -0.729  -1.294  -0.023  1.00  0.00     0.069 A 
HETATM    5  C   UNL     1      -1.447  -0.076  -0.072  1.00  0.00    -0.033 A 
HETATM    6  C   UNL     1      -0.735   1.137  -0.088  1.00  0.00     0.011 A 
HETATM    7  C   UNL     1      -2.950   0.017  -0.110  1.00  0.00     0.050 C 
HETATM    8  C   UNL     1       0.660   1.159  -0.051  1.00  0.00     0.032 A 
HETATM    9  C   UNL     1       1.399  -0.022  -0.013  1.00  0.00     0.063 A 
HETATM   10  C   UNL     1       0.683  -1.233   0.004  1.00  0.00     0.064 A 
BRANCH   9  11
HETATM   11  N   UNL     1       2.801   0.116   0.050  1.00  0.00    -0.206 NA
HETATM   12  C   UNL     1       3.431  -0.854  -0.140  1.00  0.00     0.337 C 
HETATM   13  O   UNL     1       4.061  -1.830  -0.323  1.00  0.00    -0.260 OA
ENDBRANCH   9  11
ENDBRANCH   2   4
TORSDOF 2
