REMARK  1 active torsions:
REMARK  status: ('A' for Active; 'I' for Inactive)
REMARK    1  A    between atoms: N_1  and  C_2 
ROOT
HETATM    1  C   UNL     1       2.346  -0.044  -0.129  1.00  0.00     0.011 A 
HETATM    2  C   UNL     1       3.058   1.165  -0.216  1.00  0.00    -0.041 A 
HETATM    3  C   UNL     1       4.460   1.130  -0.351  1.00  0.00     0.008 A 
HETATM    4  C   UNL     1       5.153  -0.079  -0.356  1.00  0.00     0.001 A 
HETATM    5  C   UNL     1       4.455  -1.270  -0.204  1.00  0.00     0.002 A 
HETATM    6  C   UNL     1       2.412   2.523  -0.152  1.00  0.00     0.050 C 
HETATM    7  C   UNL     1       3.066  -1.247  -0.069  1.00  0.00     0.024 A 
ENDROOT
BRANCH   1   8
HETATM    8  N   UNL     1       0.965  -0.084   0.125  1.00  0.00    -0.302 NA
HETATM    9  H   UNL     1       0.450   0.685  -0.288  1.00  0.00     0.124 HD
HETATM   10  H   UNL     1       0.541  -0.977  -0.108  1.00  0.00     0.124 HD
ENDBRANCH   1   8
TORSDOF 1
