REMARK  9 active torsions:
REMARK  status: ('A' for Active; 'I' for Inactive)
REMARK    1  A    between atoms: N_1  and  C_2 
REMARK    2  A    between atoms: N_1  and  C_6 
REMARK    3  A    between atoms: N_1  and  C_10 
REMARK    4  A    between atoms: C_2  and  C_3 
REMARK    5  A    between atoms: C_3  and  C_4 
REMARK    6  A    between atoms: C_6  and  C_7 
REMARK    7  A    between atoms: C_7  and  C_8 
REMARK    8  A    between atoms: C_10  and  C_11 
REMARK    9  A    between atoms: C_11  and  C_12 
ROOT
HETATM    1  N   UNL     1       1.036  -0.225   0.036  1.00  0.00     0.088 N 
ENDROOT
BRANCH   1   2
HETATM    2  C   UNL     1       0.557  -1.629   0.013  1.00  0.00     0.272 C 
BRANCH   2   3
HETATM    3  C   UNL     1       0.831  -2.409  -1.278  1.00  0.00     0.030 C 
BRANCH   3   4
HETATM    4  C   UNL     1      -0.020  -3.677  -1.379  1.00  0.00    -0.003 C 
HETATM    5  C   UNL     1       0.338  -4.471  -2.627  1.00  0.00     0.005 C 
ENDBRANCH   3   4
ENDBRANCH   2   3
ENDBRANCH   1   2
BRANCH   1   6
HETATM    6  C   UNL     1       0.496   0.472   1.237  1.00  0.00     0.272 C 
BRANCH   6   7
HETATM    7  C   UNL     1      -1.033   0.650   1.264  1.00  0.00     0.030 C 
BRANCH   7   8
HETATM    8  C   UNL     1      -1.475   1.425   2.509  1.00  0.00    -0.003 C 
HETATM    9  C   UNL     1      -2.991   1.513   2.604  1.00  0.00     0.005 C 
ENDBRANCH   7   8
ENDBRANCH   6   7
ENDBRANCH   1   6
BRANCH   1  10
HETATM   10  C   UNL     1       2.517  -0.115   0.078  1.00  0.00     0.272 C 
BRANCH  10  11
HETATM   11  C   UNL     1       3.237  -0.290  -1.268  1.00  0.00     0.030 C 
BRANCH  11  12
HETATM   12  C   UNL     1       4.746  -0.060  -1.131  1.00  0.00    -0.003 C 
HETATM   13  C   UNL     1       5.498  -0.604  -2.338  1.00  0.00     0.005 C 
ENDBRANCH  11  12
ENDBRANCH  10  11
ENDBRANCH   1  10
TORSDOF 9
