REMARK  0 active torsions:
REMARK  status: ('A' for Active; 'I' for Inactive)
ROOT
HETATM    1 CL   UNL     1       1.040  -0.005  -0.381  1.00  0.00    -0.081 Cl
HETATM    2  C   UNL     1       2.758  -0.035  -0.134  1.00  0.00     0.077 A 
HETATM    3  C   UNL     1       3.480   1.160   0.008  1.00  0.00     0.057 A 
HETATM    4 CL   UNL     1       2.725   2.716  -0.053  1.00  0.00    -0.082 Cl
HETATM    5  C   UNL     1       4.865   1.132   0.207  1.00  0.00     0.026 A 
HETATM    6  C   UNL     1       5.542  -0.084   0.267  1.00  0.00     0.003 A 
HETATM    7  C   UNL     1       4.834  -1.276   0.128  1.00  0.00     0.026 A 
HETATM    8  C   UNL     1       3.449  -1.255  -0.072  1.00  0.00     0.057 A 
HETATM    9 CL   UNL     1       2.654  -2.784  -0.234  1.00  0.00    -0.082 Cl
ENDROOT
TORSDOF 0
