REMARK  2 active torsions:
REMARK  status: ('A' for Active; 'I' for Inactive)
REMARK       I    between atoms: C_2  and  N_3 
REMARK       I    between atoms: C_2  and  N_11 
REMARK    1  A    between atoms: N_3  and  C_4 
REMARK    2  A    between atoms: N_11  and  C_12 
ROOT
HETATM    1  O   UNL     1       1.029   0.578   0.383  1.00  0.00    -0.247 OA
HETATM    2  C   UNL     1       2.186   0.206   0.210  1.00  0.00     0.325 C 
HETATM    3  N   UNL     1       2.689  -1.022   0.547  1.00  0.00    -0.309 N 
HETATM    4  N   UNL     1       3.082   1.142  -0.241  1.00  0.00    -0.309 N 
HETATM    5  H   UNL     1       3.641  -1.212   0.287  1.00  0.00     0.170 HD
HETATM    6  H   UNL     1       2.695   2.071  -0.120  1.00  0.00     0.170 HD
ENDROOT
BRANCH   3   7
HETATM    7  C   UNL     1       2.069  -2.026   1.318  1.00  0.00     0.036 A 
HETATM    8  C   UNL     1       2.762  -3.235   1.467  1.00  0.00     0.031 A 
HETATM    9  C   UNL     1       2.251  -4.255   2.276  1.00  0.00     0.026 A 
HETATM   10  C   UNL     1       1.048  -4.064   2.950  1.00  0.00     0.034 A 
HETATM   11  C   UNL     1       0.347  -2.871   2.805  1.00  0.00     0.026 A 
HETATM   12 CL   UNL     1       0.435  -5.302   3.973  1.00  0.00    -0.084 Cl
HETATM   13  C   UNL     1       0.853  -1.856   1.985  1.00  0.00     0.031 A 
ENDBRANCH   3   7
BRANCH   4  14
HETATM   14  C   UNL     1       4.433   1.052  -0.605  1.00  0.00     0.038 A 
HETATM   15  C   UNL     1       5.250   2.146  -0.302  1.00  0.00     0.031 A 
HETATM   16  C   UNL     1       6.616   2.112  -0.594  1.00  0.00     0.028 A 
HETATM   17  C   UNL     1       7.168   1.000  -1.232  1.00  0.00     0.055 A 
HETATM   18  C   UNL     1       6.343  -0.070  -1.594  1.00  0.00     0.058 A 
HETATM   19 CL   UNL     1       8.866   1.012  -1.545  1.00  0.00    -0.083 Cl
HETATM   20 CL   UNL     1       6.944  -1.461  -2.425  1.00  0.00    -0.082 Cl
HETATM   21  C   UNL     1       4.976  -0.039  -1.287  1.00  0.00     0.055 A 
ENDBRANCH   4  14
TORSDOF 2
