REMARK  9 active torsions:
REMARK  status: ('A' for Active; 'I' for Inactive)
REMARK    1  A    between atoms: C_1  and  O_2 
REMARK    2  A    between atoms: C_1  and  C_7 
REMARK    3  A    between atoms: O_2  and  C_3 
REMARK    4  A    between atoms: C_3  and  C_4 
REMARK    5  A    between atoms: C_4  and  O_5 
REMARK    6  A    between atoms: C_7  and  O_8 
REMARK    7  A    between atoms: O_8  and  C_9 
REMARK    8  A    between atoms: C_9  and  C_10 
REMARK    9  A    between atoms: C_10  and  O_11 
ROOT
HETATM    1  C   UNL     1       0.955   0.093   0.043  1.00  0.00     0.193 C 
ENDROOT
BRANCH   1   2
HETATM    2  O   UNL     1       0.458  -0.822  -0.933  1.00  0.00    -0.387 OA
BRANCH   2   3
HETATM    3  C   UNL     1      -0.970  -0.838  -0.950  1.00  0.00     0.193 C 
BRANCH   3   4
HETATM    4  C   UNL     1      -1.452  -1.826  -2.006  1.00  0.00     0.193 C 
BRANCH   4   5
HETATM    5  O   UNL     1      -2.879  -1.843  -2.023  1.00  0.00    -0.394 OA
HETATM    6  C   UNL     1      -3.377  -2.753  -2.995  1.00  0.00     0.201 C 
ENDBRANCH   4   5
ENDBRANCH   3   4
ENDBRANCH   2   3
ENDBRANCH   1   2
BRANCH   1   7
HETATM    7  C   UNL     1       2.480   0.075   0.024  1.00  0.00     0.193 C 
BRANCH   7   8
HETATM    8  O   UNL     1       2.977   0.990   1.000  1.00  0.00    -0.387 OA
BRANCH   8   9
HETATM    9  C   UNL     1       4.405   1.006   1.018  1.00  0.00     0.193 C 
BRANCH   9  10
HETATM   10  C   UNL     1       4.887   1.994   2.073  1.00  0.00     0.193 C 
BRANCH  10  11
HETATM   11  O   UNL     1       6.314   2.011   2.091  1.00  0.00    -0.394 OA
HETATM   12  C   UNL     1       6.812   2.921   3.063  1.00  0.00     0.201 C 
ENDBRANCH  10  11
ENDBRANCH   9  10
ENDBRANCH   8   9
ENDBRANCH   7   8
ENDBRANCH   1   7
TORSDOF 9
