REMARK  11 active torsions:
REMARK  status: ('A' for Active; 'I' for Inactive)
REMARK    1  A    between atoms: C_2  and  O_3 
REMARK    2  A    between atoms: O_3  and  C_4 
REMARK    3  A    between atoms: C_4  and  C_5 
REMARK    4  A    between atoms: C_5  and  O_6 
REMARK    5  A    between atoms: O_6  and  C_7 
REMARK    6  A    between atoms: C_7  and  C_8 
REMARK    7  A    between atoms: C_8  and  O_9 
REMARK    8  A    between atoms: O_9  and  C_10 
REMARK    9  A    between atoms: C_10  and  C_11 
REMARK   10  A    between atoms: C_11  and  O_12 
REMARK   11  A    between atoms: O_12  and  C_13 
ROOT
HETATM    1  C   UNL     1       6.808  -4.054   0.459  1.00  0.00     0.193 C 
ENDROOT
BRANCH   1   2
HETATM    2  O   UNL     1       6.309  -2.727   0.283  1.00  0.00    -0.387 OA
BRANCH   2   3
HETATM    3  C   UNL     1       4.883  -2.704   0.280  1.00  0.00     0.194 C 
BRANCH   3   4
HETATM    4  C   UNL     1       4.406  -1.268   0.090  1.00  0.00     0.205 C 
BRANCH   4   5
HETATM    5  O   UNL     1       2.969  -1.256   0.088  1.00  0.00    -0.320 OA
BRANCH   5   6
HETATM    6  C   UNL     1       2.268  -0.107  -0.064  1.00  0.00     0.254 C 
HETATM    7  O   UNL     1       1.041  -0.113  -0.063  1.00  0.00    -0.266 OA
HETATM    8  C   UNL     1       3.051   1.162  -0.232  1.00  0.00     0.126 C 
ENDBRANCH   5   6
ENDBRANCH   4   5
ENDBRANCH   3   4
ENDBRANCH   2   3
ENDBRANCH   1   2
BRANCH   1   9
HETATM    9  C   UNL     1       8.333  -4.026   0.455  1.00  0.00     0.193 C 
BRANCH   9  10
HETATM   10  O   UNL     1       8.835  -5.351   0.630  1.00  0.00    -0.387 OA
BRANCH  10  11
HETATM   11  C   UNL     1      10.261  -5.374   0.633  1.00  0.00     0.194 C 
BRANCH  11  12
HETATM   12  C   UNL     1      10.751  -6.805   0.823  1.00  0.00     0.205 C 
BRANCH  12  13
HETATM   13  O   UNL     1      12.185  -6.807   0.823  1.00  0.00    -0.320 OA
BRANCH  13  14
HETATM   14  C   UNL     1      12.740  -8.038   0.986  1.00  0.00     0.254 C 
HETATM   15  O   UNL     1      12.120  -9.083   1.125  1.00  0.00    -0.266 OA
HETATM   16  C   UNL     1      14.237  -7.951   0.975  1.00  0.00     0.126 C 
ENDBRANCH  13  14
ENDBRANCH  12  13
ENDBRANCH  11  12
ENDBRANCH  10  11
ENDBRANCH   9  10
ENDBRANCH   1   9
TORSDOF 11
