REMARK  6 active torsions:
REMARK  status: ('A' for Active; 'I' for Inactive)
REMARK    1  A    between atoms: C_1  and  C_2 
REMARK    2  A    between atoms: C_1  and  N_5 
REMARK    3  A    between atoms: N_8  and  C_9 
REMARK    4  A    between atoms: C_9  and  C_10 
REMARK    5  A    between atoms: N_15  and  C_16 
REMARK    6  A    between atoms: C_16  and  C_17 
ROOT
HETATM    1  N   UNL     1       2.598  -0.111  -0.571  1.00  0.00    -0.248 N 
HETATM    2  C   UNL     1       3.320  -1.233  -0.920  1.00  0.00     0.336 C 
HETATM    3  O   UNL     1       2.897  -2.061  -1.727  1.00  0.00    -0.246 OA
HETATM    4  N   UNL     1       4.537  -1.361  -0.288  1.00  0.00    -0.248 N 
HETATM    5  C   UNL     1       5.145  -0.293   0.332  1.00  0.00     0.336 C 
HETATM    6  O   UNL     1       6.117  -0.428   1.078  1.00  0.00    -0.246 OA
HETATM    7  N   UNL     1       4.582   0.936   0.064  1.00  0.00    -0.248 N 
HETATM    8  C   UNL     1       3.218   1.033  -0.115  1.00  0.00     0.336 C 
HETATM    9  O   UNL     1       2.595   2.065   0.139  1.00  0.00    -0.246 OA
ENDROOT
BRANCH   1  10
HETATM   10  C   UNL     1       1.165  -0.103  -0.842  1.00  0.00     0.172 C 
BRANCH  10  11
HETATM   11  C   UNL     1       0.445  -0.843   0.248  1.00  0.00     0.163 A 
HETATM   12  C   UNL     1       0.258  -2.340   0.203  1.00  0.00     0.201 A 
HETATM   13  O   UNL     1      -0.798  -1.436  -0.151  1.00  0.00    -0.380 OA
ENDBRANCH  10  11
ENDBRANCH   1  10
BRANCH   4  14
HETATM   14  C   UNL     1       5.248  -2.629  -0.382  1.00  0.00     0.172 C 
BRANCH  14  15
HETATM   15  C   UNL     1       4.581  -3.700   0.428  1.00  0.00     0.163 A 
HETATM   16  C   UNL     1       4.915  -5.151   0.181  1.00  0.00     0.201 A 
HETATM   17  O   UNL     1       3.700  -4.564  -0.301  1.00  0.00    -0.380 OA
ENDBRANCH  14  15
ENDBRANCH   4  14
BRANCH   7  18
HETATM   18  C   UNL     1       5.325   2.142   0.417  1.00  0.00     0.172 C 
BRANCH  18  19
HETATM   19  C   UNL     1       6.707   2.141  -0.179  1.00  0.00     0.163 A 
HETATM   20  C   UNL     1       7.147   3.148  -1.214  1.00  0.00     0.201 A 
HETATM   21  O   UNL     1       6.753   1.821  -1.581  1.00  0.00    -0.380 OA
ENDBRANCH  18  19
ENDBRANCH   7  18
TORSDOF 6
