REMARK  24 active torsions:
REMARK  status: ('A' for Active; 'I' for Inactive)
REMARK    1  A    between atoms: C_2  and  O_3 
REMARK    2  A    between atoms: C_2  and  C_12 
REMARK    3  A    between atoms: O_3  and  C_4 
REMARK    4  A    between atoms: C_4  and  C_5 
REMARK    5  A    between atoms: C_5  and  C_6 
REMARK    6  A    between atoms: C_5  and  C_10 
REMARK    7  A    between atoms: C_6  and  C_7 
REMARK    8  A    between atoms: C_7  and  C_8 
REMARK    9  A    between atoms: C_15  and  C_28 
REMARK   10  A    between atoms: C_16  and  C_17 
REMARK   11  A    between atoms: C_17  and  O_19 
REMARK   12  A    between atoms: O_19  and  C_20 
REMARK   13  A    between atoms: C_20  and  C_21 
REMARK   14  A    between atoms: C_21  and  C_22 
REMARK   15  A    between atoms: C_21  and  C_26 
REMARK   16  A    between atoms: C_22  and  C_23 
REMARK   17  A    between atoms: C_23  and  C_24 
REMARK   18  A    between atoms: C_28  and  O_30 
REMARK   19  A    between atoms: O_30  and  C_31 
REMARK   20  A    between atoms: C_31  and  C_32 
REMARK   21  A    between atoms: C_32  and  C_33 
REMARK   22  A    between atoms: C_32  and  C_37 
REMARK   23  A    between atoms: C_33  and  C_34 
REMARK   24  A    between atoms: C_34  and  C_35 
ROOT
HETATM    1  C   UNL     1       3.093  -1.072   1.103  1.00  0.00     0.040 A 
HETATM    2  C   UNL     1       3.939  -0.615   2.111  1.00  0.00     0.018 A 
HETATM    3  C   UNL     1       4.588  -1.540   2.933  1.00  0.00     0.020 A 
HETATM    4  C   UNL     1       4.373  -2.922   2.776  1.00  0.00     0.055 A 
HETATM    5  C   UNL     1       3.510  -3.376   1.770  1.00  0.00     0.056 A 
HETATM    6  C   UNL     1       2.862  -2.442   0.949  1.00  0.00     0.036 A 
ENDROOT
BRANCH   1   7
HETATM    7  C   UNL     1       2.334  -0.153   0.234  1.00  0.00     0.293 C 
HETATM    8  O   UNL     1       1.110  -0.180   0.274  1.00  0.00    -0.259 OA
BRANCH   7   9
HETATM    9  O   UNL     1       3.007   0.611  -0.654  1.00  0.00    -0.317 OA
BRANCH   9  10
HETATM   10  C   UNL     1       4.437   0.764  -0.698  1.00  0.00     0.183 C 
BRANCH  10  11
HETATM   11  C   UNL     1       4.822   1.808  -1.770  1.00  0.00     0.010 C 
BRANCH  11  12
HETATM   12  C   UNL     1       4.303   3.233  -1.443  1.00  0.00     0.007 C 
BRANCH  12  13
HETATM   13  C   UNL     1       2.777   3.375  -1.409  1.00  0.00     0.000 C 
BRANCH  13  14
HETATM   14  C   UNL     1       2.342   4.838  -1.314  1.00  0.00    -0.005 C 
HETATM   15  C   UNL     1       0.825   4.955  -1.277  1.00  0.00     0.005 C 
ENDBRANCH  13  14
ENDBRANCH  12  13
ENDBRANCH  11  12
BRANCH  11  16
HETATM   16  C   UNL     1       6.361   1.793  -1.918  1.00  0.00     0.002 C 
HETATM   17  C   UNL     1       6.900   2.674  -3.036  1.00  0.00     0.005 C 
ENDBRANCH  11  16
ENDBRANCH  10  11
ENDBRANCH   9  10
ENDBRANCH   7   9
ENDBRANCH   1   7
BRANCH   5  18
HETATM   18  C   UNL     1       3.381  -4.821   1.468  1.00  0.00     0.294 C 
HETATM   19  O   UNL     1       4.331  -5.585   1.486  1.00  0.00    -0.259 OA
BRANCH  18  20
HETATM   20  O   UNL     1       2.110  -5.110   1.088  1.00  0.00    -0.317 OA
BRANCH  20  21
HETATM   21  C   UNL     1       1.891  -6.475   0.691  1.00  0.00     0.183 C 
BRANCH  21  22
HETATM   22  C   UNL     1       0.719  -6.581  -0.312  1.00  0.00     0.010 C 
BRANCH  22  23
HETATM   23  C   UNL     1       1.069  -6.033  -1.721  1.00  0.00     0.007 C 
BRANCH  23  24
HETATM   24  C   UNL     1       1.476  -4.562  -1.738  1.00  0.00     0.000 C 
BRANCH  24  25
HETATM   25  C   UNL     1       1.569  -3.983  -3.149  1.00  0.00    -0.005 C 
HETATM   26  C   UNL     1       1.942  -2.506  -3.103  1.00  0.00     0.005 C 
ENDBRANCH  24  25
ENDBRANCH  23  24
ENDBRANCH  22  23
BRANCH  22  27
HETATM   27  C   UNL     1       0.282  -8.062  -0.391  1.00  0.00     0.002 C 
HETATM   28  C   UNL     1      -0.927  -8.320  -1.280  1.00  0.00     0.005 C 
ENDBRANCH  22  27
ENDBRANCH  21  22
ENDBRANCH  20  21
ENDBRANCH  18  20
ENDBRANCH   5  18
BRANCH   4  29
HETATM   29  C   UNL     1       4.927  -3.862   3.776  1.00  0.00     0.294 C 
HETATM   30  O   UNL     1       4.271  -4.764   4.270  1.00  0.00    -0.259 OA
BRANCH  29  31
HETATM   31  O   UNL     1       6.200  -3.510   4.091  1.00  0.00    -0.317 OA
BRANCH  31  32
HETATM   32  C   UNL     1       6.830  -4.338   5.084  1.00  0.00     0.183 C 
BRANCH  32  33
HETATM   33  C   UNL     1       7.835  -3.518   5.924  1.00  0.00     0.010 C 
BRANCH  33  34
HETATM   34  C   UNL     1       7.143  -2.570   6.936  1.00  0.00     0.007 C 
BRANCH  34  35
HETATM   35  C   UNL     1       6.231  -1.524   6.297  1.00  0.00     0.000 C 
BRANCH  35  36
HETATM   36  C   UNL     1       5.747  -0.473   7.295  1.00  0.00    -0.005 C 
HETATM   37  C   UNL     1       4.863   0.558   6.608  1.00  0.00     0.005 C 
ENDBRANCH  35  36
ENDBRANCH  34  35
ENDBRANCH  33  34
BRANCH  33  38
HETATM   38  C   UNL     1       8.780  -4.503   6.650  1.00  0.00     0.002 C 
HETATM   39  C   UNL     1       9.902  -3.837   7.435  1.00  0.00     0.005 C 
ENDBRANCH  33  38
ENDBRANCH  32  33
ENDBRANCH  31  32
ENDBRANCH  29  31
ENDBRANCH   4  29
TORSDOF 24
