REMARK  1 active torsions:
REMARK  status: ('A' for Active; 'I' for Inactive)
REMARK    1  A    between atoms: N_1  and  C_2 
ROOT
HETATM    1  C   UNL     1       2.407  -0.024  -0.068  1.00  0.00     0.018 A 
HETATM    2  C   UNL     1       3.124   1.185   0.079  1.00  0.00    -0.041 A 
HETATM    3  C   UNL     1       4.521   1.151   0.248  1.00  0.00     0.008 A 
HETATM    4  C   UNL     1       5.214  -0.054   0.234  1.00  0.00     0.001 A 
HETATM    5  C   UNL     1       4.524  -1.238   0.011  1.00  0.00     0.008 A 
HETATM    6  C   UNL     1       2.488   2.550   0.035  1.00  0.00     0.050 C 
HETATM    7  C   UNL     1       3.131  -1.234  -0.183  1.00  0.00    -0.041 A 
HETATM    8  C   UNL     1       2.466  -2.560  -0.448  1.00  0.00     0.050 C 
ENDROOT
BRANCH   1   9
HETATM    9  N   UNL     1       1.021  -0.011  -0.315  1.00  0.00    -0.302 NA
HETATM   10  H   UNL     1       0.538   0.766   0.120  1.00  0.00     0.124 HD
HETATM   11  H   UNL     1       0.564  -0.885  -0.079  1.00  0.00     0.124 HD
ENDBRANCH   1   9
TORSDOF 1
