REMARK  1 active torsions:
REMARK  status: ('A' for Active; 'I' for Inactive)
REMARK    1  A    between atoms: S_1  and  C_2 
ROOT
HETATM    1  C   UNL     1       0.381   0.090   1.610  1.00  0.00     0.081 A 
HETATM    2  C   UNL     1      -0.002  -1.102   2.230  1.00  0.00     0.033 A 
HETATM    3  C   UNL     1       0.150   1.320   2.226  1.00  0.00     0.027 A 
HETATM    4  C   UNL     1      -0.615  -1.077   3.493  1.00  0.00    -0.055 A 
HETATM    5  C   UNL     1      -0.461   1.354   3.479  1.00  0.00     0.009 A 
HETATM    6  C   UNL     1      -0.851   0.165   4.122  1.00  0.00    -0.056 A 
HETATM    7  C   UNL     1      -1.024  -2.375   4.130  1.00  0.00     0.049 C 
HETATM    8  C   UNL     1      -1.530   0.246   5.461  1.00  0.00     0.049 C 
ENDROOT
BRANCH   1   9
HETATM    9  S   UNL     1       1.123   0.049  -0.043  1.00  0.00     0.137 S 
HETATM   10  O   UNL     1       0.612   1.271  -0.661  1.00  0.00    -0.591 OA
HETATM   11  O   UNL     1       0.603  -1.192  -0.612  1.00  0.00    -0.591 OA
HETATM   12  O   UNL     1       2.549   0.050   0.269  1.00  0.00    -0.591 OA
ENDBRANCH   1   9
TORSDOF 1
