REMARK  2 active torsions:
REMARK  status: ('A' for Active; 'I' for Inactive)
REMARK    1  A    between atoms: C_1  and  O_2 
REMARK    2  A    between atoms: C_3  and  C_8 
ROOT
HETATM    1  C   UNL     1      -1.400   0.011  -0.003  1.00  0.00     0.072 A 
HETATM    2  C   UNL     1      -0.711  -1.206  -0.125  1.00  0.00    -0.018 A 
HETATM    3  C   UNL     1      -0.732   1.234   0.135  1.00  0.00     0.037 A 
HETATM    4  C   UNL     1       0.656   1.284   0.131  1.00  0.00     0.003 A 
HETATM    5  C   UNL     1       0.702  -1.115  -0.117  1.00  0.00     0.011 A 
HETATM    6  C   UNL     1       1.376   0.105   0.001  1.00  0.00     0.001 A 
ENDROOT
BRANCH   2   7
HETATM    7  C   UNL     1      -1.349  -2.610  -0.209  1.00  0.00    -0.021 C 
HETATM    8  C   UNL     1      -0.810  -3.360  -1.452  1.00  0.00     0.019 C 
HETATM    9  C   UNL     1      -0.968  -3.406   1.062  1.00  0.00     0.019 C 
HETATM   10  C   UNL     1      -2.889  -2.662  -0.313  1.00  0.00     0.019 C 
ENDBRANCH   2   7
BRANCH   1  11
HETATM   11  O   UNL     1      -2.760   0.112  -0.014  1.00  0.00    -0.360 OA
HETATM   12  H   UNL     1      -3.037  -0.161  -0.904  1.00  0.00     0.217 HD
ENDBRANCH   1  11
TORSDOF 2
