REMARK  2 active torsions:
REMARK  status: ('A' for Active; 'I' for Inactive)
REMARK    1  A    between atoms: C_1  and  O_2 
REMARK    2  A    between atoms: C_3  and  C_8 
ROOT
HETATM    1  C   UNL     1      -1.405   0.002  -0.053  1.00  0.00     0.073 A 
HETATM    2  C   UNL     1      -0.715  -1.216  -0.149  1.00  0.00    -0.017 A 
HETATM    3  C   UNL     1      -0.741   1.234   0.013  1.00  0.00     0.044 A 
HETATM    4  C   UNL     1       0.651   1.299  -0.036  1.00  0.00    -0.059 A 
HETATM    5  C   UNL     1       0.696  -1.120  -0.172  1.00  0.00     0.011 A 
HETATM    6  C   UNL     1       1.367   0.108  -0.124  1.00  0.00     0.007 A 
HETATM    7  C   UNL     1       1.371   2.613   0.000  1.00  0.00     0.048 C 
ENDROOT
BRANCH   2   8
HETATM    8  C   UNL     1      -1.352  -2.622  -0.195  1.00  0.00    -0.021 C 
HETATM    9  C   UNL     1      -0.824  -3.395  -1.429  1.00  0.00     0.019 C 
HETATM   10  C   UNL     1      -0.959  -3.393   1.087  1.00  0.00     0.019 C 
HETATM   11  C   UNL     1      -2.892  -2.675  -0.286  1.00  0.00     0.019 C 
ENDBRANCH   2   8
BRANCH   1  12
HETATM   12  O   UNL     1      -2.765   0.092  -0.024  1.00  0.00    -0.360 OA
HETATM   13  H   UNL     1      -3.061  -0.143  -0.920  1.00  0.00     0.217 HD
ENDBRANCH   1  12
TORSDOF 2
