REMARK  0 active torsions:
REMARK  status: ('A' for Active; 'I' for Inactive)
ROOT
HETATM    1  N   UNL     1      -0.667   1.172   0.000  1.00  0.00    -0.150 N 
HETATM    2  C   UNL     1      -1.418   0.001   0.001  1.00  0.00     0.366 A 
HETATM    3  N   UNL     1      -0.668  -1.170   0.000  1.00  0.00    -0.150 N 
HETATM    4  C   UNL     1       0.721  -1.235  -0.000  1.00  0.00     0.366 A 
HETATM    5  N   UNL     1       1.361  -0.001  -0.001  1.00  0.00    -0.150 N 
HETATM    6  C   UNL     1       0.722   1.235  -0.000  1.00  0.00     0.366 A 
HETATM    7  O   UNL     1      -2.652   0.002   0.001  1.00  0.00    -0.243 OA
HETATM    8  O   UNL     1       1.337  -2.304  -0.001  1.00  0.00    -0.243 OA
HETATM    9  O   UNL     1       1.340   2.303  -0.001  1.00  0.00    -0.243 OA
HETATM   10 CL   UNL     1      -1.522   2.654   0.001  1.00  0.00     0.027 Cl
HETATM   11 CL   UNL     1      -1.525  -2.652   0.001  1.00  0.00     0.027 Cl
HETATM   12 CL   UNL     1       3.072  -0.002  -0.002  1.00  0.00     0.027 Cl
ENDROOT
TORSDOF 0
