REMARK  21 active torsions:
REMARK  status: ('A' for Active; 'I' for Inactive)
REMARK    1  A    between atoms: C_1  and  C_2 
REMARK    2  A    between atoms: C_1  and  O_3 
REMARK    3  A    between atoms: C_2  and  O_4 
REMARK    4  A    between atoms: O_3  and  C_11 
REMARK    5  A    between atoms: O_4  and  C_5 
REMARK    6  A    between atoms: C_5  and  C_6 
REMARK    7  A    between atoms: C_6  and  O_7 
REMARK    8  A    between atoms: O_7  and  C_8 
REMARK    9  A    between atoms: C_8  and  C_9 
REMARK   10  A    between atoms: C_9  and  O_10 
REMARK   11  A    between atoms: O_10  and  C_20 
REMARK   12  A    between atoms: C_11  and  C_12 
REMARK   13  A    between atoms: C_12  and  C_13 
REMARK   14  A    between atoms: C_12  and  C_18 
REMARK   15  A    between atoms: C_13  and  C_14 
REMARK   16  A    between atoms: C_14  and  C_15 
REMARK   17  A    between atoms: C_20  and  C_21 
REMARK   18  A    between atoms: C_21  and  C_22 
REMARK   19  A    between atoms: C_21  and  C_27 
REMARK   20  A    between atoms: C_22  and  C_23 
REMARK   21  A    between atoms: C_23  and  C_24 
ROOT
HETATM    1  C   UNL     1      -1.462   0.760  -2.562  1.00  0.00     0.193 C 
ENDROOT
BRANCH   1   2
HETATM    2  O   UNL     1      -1.085   0.575  -1.198  1.00  0.00    -0.387 OA
BRANCH   2   3
HETATM    3  C   UNL     1       0.334   0.529  -1.034  1.00  0.00     0.194 C 
BRANCH   3   4
HETATM    4  C   UNL     1       0.631   0.276   0.440  1.00  0.00     0.205 C 
BRANCH   4   5
HETATM    5  O   UNL     1       2.043   0.212   0.666  1.00  0.00    -0.319 OA
BRANCH   5   6
HETATM    6  C   UNL     1       2.469  -0.783   1.485  1.00  0.00     0.263 C 
HETATM    7  O   UNL     1       3.136  -1.719   1.055  1.00  0.00    -0.265 OA
BRANCH   6   8
HETATM    8  C   UNL     1       2.182  -0.601   2.976  1.00  0.00     0.085 C 
BRANCH   8   9
HETATM    9  C   UNL     1       2.662   0.769   3.494  1.00  0.00     0.014 C 
BRANCH   9  10
HETATM   10  C   UNL     1       4.183   0.799   3.701  1.00  0.00     0.000 C 
BRANCH  10  11
HETATM   11  C   UNL     1       4.628   2.091   4.389  1.00  0.00    -0.005 C 
HETATM   12  C   UNL     1       6.114   2.068   4.713  1.00  0.00     0.005 C 
ENDBRANCH  10  11
ENDBRANCH   9  10
ENDBRANCH   8   9
BRANCH   8  13
HETATM   13  C   UNL     1       0.713  -0.891   3.325  1.00  0.00     0.010 C 
HETATM   14  C   UNL     1       0.502  -1.247   4.791  1.00  0.00     0.006 C 
ENDBRANCH   8  13
ENDBRANCH   6   8
ENDBRANCH   5   6
ENDBRANCH   4   5
ENDBRANCH   3   4
ENDBRANCH   2   3
ENDBRANCH   1   2
BRANCH   1  15
HETATM   15  C   UNL     1      -2.986   0.774  -2.666  1.00  0.00     0.193 C 
BRANCH  15  16
HETATM   16  O   UNL     1      -3.364   0.972  -4.028  1.00  0.00    -0.387 OA
BRANCH  16  17
HETATM   17  C   UNL     1      -4.783   0.973  -4.199  1.00  0.00     0.194 C 
BRANCH  17  18
HETATM   18  C   UNL     1      -5.079   1.135  -5.686  1.00  0.00     0.205 C 
BRANCH  18  19
HETATM   19  O   UNL     1      -6.491   1.135  -5.921  1.00  0.00    -0.319 OA
BRANCH  19  20
HETATM   20  C   UNL     1      -6.919   0.403  -6.981  1.00  0.00     0.263 C 
HETATM   21  O   UNL     1      -7.585  -0.611  -6.826  1.00  0.00    -0.265 OA
BRANCH  20  22
HETATM   22  C   UNL     1      -6.630   0.991  -8.365  1.00  0.00     0.085 C 
BRANCH  22  23
HETATM   23  C   UNL     1      -7.110   2.450  -8.486  1.00  0.00     0.014 C 
BRANCH  23  24
HETATM   24  C   UNL     1      -8.631   2.536  -8.677  1.00  0.00     0.000 C 
BRANCH  24  25
HETATM   25  C   UNL     1      -9.077   3.967  -8.983  1.00  0.00    -0.005 C 
HETATM   26  C   UNL     1     -10.562   4.034  -9.300  1.00  0.00     0.005 C 
ENDBRANCH  24  25
ENDBRANCH  23  24
ENDBRANCH  22  23
BRANCH  22  27
HETATM   27  C   UNL     1      -5.161   0.807  -8.780  1.00  0.00     0.010 C 
HETATM   28  C   UNL     1      -4.950   0.869 -10.288  1.00  0.00     0.006 C 
ENDBRANCH  22  27
ENDBRANCH  20  22
ENDBRANCH  19  20
ENDBRANCH  18  19
ENDBRANCH  17  18
ENDBRANCH  16  17
ENDBRANCH  15  16
ENDBRANCH   1  15
TORSDOF 21
