REMARK  3 active torsions:
REMARK  status: ('A' for Active; 'I' for Inactive)
REMARK    1  A    between atoms: C_1  and  O_2 
REMARK    2  A    between atoms: C_3  and  C_8 
REMARK    3  A    between atoms: C_7  and  C_12 
ROOT
HETATM    1  C   UNL     1      -1.446  -0.005   0.023  1.00  0.00     0.072 A 
HETATM    2  C   UNL     1      -0.755  -1.212  -0.132  1.00  0.00    -0.017 A 
HETATM    3  C   UNL     1      -0.780   1.216   0.120  1.00  0.00     0.037 A 
HETATM    4  C   UNL     1       0.609   1.273   0.042  1.00  0.00     0.011 A 
HETATM    5  C   UNL     1       0.662  -1.113  -0.183  1.00  0.00     0.018 A 
HETATM    6  C   UNL     1       1.368   0.106  -0.108  1.00  0.00    -0.050 A 
ENDROOT
BRANCH   2   7
HETATM    7  C   UNL     1      -1.389  -2.620  -0.201  1.00  0.00    -0.021 C 
HETATM    8  C   UNL     1      -0.863  -3.377  -1.447  1.00  0.00     0.019 C 
HETATM    9  C   UNL     1      -0.994  -3.405   1.070  1.00  0.00     0.019 C 
HETATM   10  C   UNL     1      -2.930  -2.674  -0.295  1.00  0.00     0.019 C 
ENDBRANCH   2   7
BRANCH   1  11
HETATM   11  O   UNL     1      -2.805   0.085   0.082  1.00  0.00    -0.360 OA
HETATM   12  H   UNL     1      -3.122  -0.147  -0.806  1.00  0.00     0.217 HD
ENDBRANCH   1  11
BRANCH   6  13
HETATM   13  C   UNL     1       2.903   0.184  -0.212  1.00  0.00    -0.024 C 
HETATM   14  C   UNL     1       3.275   0.872  -1.542  1.00  0.00     0.019 C 
HETATM   15  C   UNL     1       3.486   1.003   0.962  1.00  0.00     0.019 C 
HETATM   16  C   UNL     1       3.605  -1.193  -0.188  1.00  0.00     0.019 C 
ENDBRANCH   6  13
TORSDOF 3
