REMARK  2 active torsions:
REMARK  status: ('A' for Active; 'I' for Inactive)
REMARK    1  A    between atoms: C_1  and  C_7 
REMARK    2  A    between atoms: C_5  and  C_10 
ROOT
HETATM    1  C   UNL     1      -0.710  -1.204  -0.076  1.00  0.00    -0.054 A 
HETATM    2  C   UNL     1      -1.423  -0.004   0.012  1.00  0.00     0.007 A 
HETATM    3  C   UNL     1      -0.754   1.220   0.015  1.00  0.00     0.001 A 
HETATM    4  C   UNL     1       0.638   1.260  -0.056  1.00  0.00     0.007 A 
HETATM    5  C   UNL     1       1.395   0.081  -0.113  1.00  0.00    -0.054 A 
HETATM    6  C   UNL     1       0.699  -1.140  -0.135  1.00  0.00     0.015 A 
ENDROOT
BRANCH   1   7
HETATM    7  C   UNL     1      -1.383  -2.571  -0.123  1.00  0.00     0.010 C 
HETATM    8  C   UNL     1      -1.114  -3.358   1.165  1.00  0.00     0.015 C 
HETATM    9  C   UNL     1      -2.892  -2.546  -0.398  1.00  0.00     0.015 C 
ENDBRANCH   1   7
BRANCH   5  10
HETATM   10  C   UNL     1       2.917   0.175  -0.182  1.00  0.00     0.010 C 
HETATM   11  C   UNL     1       3.488   0.933   1.025  1.00  0.00     0.015 C 
HETATM   12  C   UNL     1       3.653  -1.166  -0.307  1.00  0.00     0.015 C 
ENDBRANCH   5  10
TORSDOF 2
