REMARK  1 active torsions:
REMARK  status: ('A' for Active; 'I' for Inactive)
REMARK    1  A    between atoms: C_4  and  C_8 
ROOT
HETATM    1  C   UNL     1      -1.457  -0.055  -0.065  1.00  0.00    -0.062 A 
HETATM    2  C   UNL     1      -0.791   1.169  -0.164  1.00  0.00     0.007 A 
HETATM    3  C   UNL     1       0.606   1.214  -0.183  1.00  0.00     0.008 A 
HETATM    4  C   UNL     1       1.378   0.043  -0.095  1.00  0.00    -0.055 A 
HETATM    5  C   UNL     1       0.697  -1.179   0.005  1.00  0.00     0.008 A 
HETATM    6  C   UNL     1      -0.702  -1.227   0.015  1.00  0.00     0.007 A 
HETATM    7  C   UNL     1      -2.955  -0.124  -0.084  1.00  0.00     0.048 C 
ENDROOT
BRANCH   4   8
HETATM    8  C   UNL     1       2.897   0.150  -0.150  1.00  0.00     0.010 C 
HETATM    9  C   UNL     1       3.445   0.951   1.039  1.00  0.00     0.015 C 
HETATM   10  C   UNL     1       3.646  -1.186  -0.236  1.00  0.00     0.015 C 
ENDBRANCH   4   8
TORSDOF 1
