REMARK  0 active torsions:
REMARK  status: ('A' for Active; 'I' for Inactive)
ROOT
HETATM    1  N   UNL     1      -1.370  -0.037   0.065  1.00  0.00    -0.272 NA
HETATM    2  C   UNL     1      -0.612  -1.155   0.068  1.00  0.00     0.116 A 
HETATM    3  C   UNL     1      -0.714   1.147   0.003  1.00  0.00     0.138 A 
HETATM    4  C   UNL     1       0.667   1.260  -0.056  1.00  0.00     0.062 A 
HETATM    5  C   UNL     1       0.773  -1.144   0.014  1.00  0.00     0.021 A 
HETATM    6  C   UNL     1       1.423   0.088  -0.049  1.00  0.00     0.025 A 
HETATM    7  C   UNL     1       1.288   2.544  -0.125  1.00  0.00     0.101 C 
HETATM    8  N   UNL     1       1.794   3.587  -0.183  1.00  0.00    -0.191 NA
ENDROOT
TORSDOF 0
