REMARK  7 active torsions:
REMARK  status: ('A' for Active; 'I' for Inactive)
REMARK    1  A    between atoms: C_1  and  C_2 
REMARK    2  A    between atoms: C_2  and  C_3 
REMARK    3  A    between atoms: C_3  and  C_4 
REMARK    4  A    between atoms: C_4  and  C_5 
REMARK    5  A    between atoms: C_5  and  C_6 
REMARK    6  A    between atoms: C_6  and  C_7 
REMARK    7  A    between atoms: C_10  and  C_11 
ROOT
HETATM    1  C   UNL     1       0.198   0.440  -1.175  1.00  0.00    -0.020 C 
HETATM    2  C   UNL     1      -1.149   0.473  -1.270  1.00  0.00     0.021 C 
ENDROOT
BRANCH   1   3
HETATM    3  C   UNL     1       0.707  -0.123   0.106  1.00  0.00     0.265 C 
HETATM    4  O   UNL     1       1.892  -0.250   0.388  1.00  0.00    -0.302 OA
ENDBRANCH   1   3
BRANCH   1   5
HETATM    5  C   UNL     1       1.114   0.921  -2.279  1.00  0.00     0.042 C 
BRANCH   5   6
HETATM    6  C   UNL     1       2.630   0.811  -2.096  1.00  0.00     0.005 C 
BRANCH   6   7
HETATM    7  C   UNL     1       3.369   1.360  -3.322  1.00  0.00     0.000 C 
BRANCH   7   8
HETATM    8  C   UNL     1       4.884   1.280  -3.134  1.00  0.00    -0.000 C 
BRANCH   8   9
HETATM    9  C   UNL     1       5.628   1.830  -4.349  1.00  0.00    -0.005 C 
HETATM   10  C   UNL     1       7.134   1.751  -4.155  1.00  0.00     0.005 C 
ENDBRANCH   8   9
ENDBRANCH   7   8
ENDBRANCH   6   7
ENDBRANCH   5   6
ENDBRANCH   1   5
BRANCH   2  11
HETATM   11  C   UNL     1      -1.858   0.974  -2.452  1.00  0.00    -0.036 A 
HETATM   12  C   UNL     1      -2.402   0.069  -3.369  1.00  0.00     0.011 A 
HETATM   13  C   UNL     1      -3.025   0.534  -4.528  1.00  0.00     0.001 A 
HETATM   14  C   UNL     1      -3.108   1.905  -4.774  1.00  0.00     0.000 A 
HETATM   15  C   UNL     1      -2.580   2.812  -3.856  1.00  0.00     0.001 A 
HETATM   16  C   UNL     1      -1.960   2.348  -2.695  1.00  0.00     0.011 A 
ENDBRANCH   2  11
TORSDOF 7
