REMARK  15 active torsions:
REMARK  status: ('A' for Active; 'I' for Inactive)
REMARK    1  A    between atoms: C_1  and  C_2 
REMARK    2  A    between atoms: C_1  and  N_20 
REMARK    3  A    between atoms: C_2  and  O_4 
REMARK    4  A    between atoms: C_5  and  C_6 
REMARK    5  A    between atoms: C_5  and  N_19 
REMARK    6  A    between atoms: C_6  and  O_8 
REMARK    7  A    between atoms: C_9  and  C_10 
REMARK    8  A    between atoms: C_9  and  N_20 
REMARK    9  A    between atoms: C_10  and  O_12 
REMARK   10  A    between atoms: C_13  and  C_14 
REMARK   11  A    between atoms: C_13  and  N_19 
REMARK   12  A    between atoms: C_14  and  O_16 
REMARK   13  A    between atoms: C_17  and  C_18 
REMARK   14  A    between atoms: C_17  and  N_19 
REMARK   15  A    between atoms: C_18  and  N_20 
ROOT
HETATM    1  C   UNL     1       4.327   1.418   0.130  1.00  0.00     0.302 C 
ENDROOT
BRANCH   1   2
HETATM    2  C   UNL     1       2.863   1.494  -0.391  1.00  0.00     0.302 C 
BRANCH   2   3
HETATM    3  N   UNL     1       2.147   0.192  -0.463  1.00  0.00     0.095 N 
BRANCH   3   4
HETATM    4  C   UNL     1       0.684   0.431  -0.561  1.00  0.00     0.303 C 
BRANCH   4   5
HETATM    5  C   UNL     1       0.001   0.758   0.796  1.00  0.00     0.142 C 
HETATM    6  C   UNL     1      -0.418   2.218   0.931  1.00  0.00     0.041 C 
BRANCH   5   7
HETATM    7  O   UNL     1      -1.177  -0.045   0.956  1.00  0.00    -0.394 OA
HETATM    8  H   UNL     1      -1.821   0.226   0.280  1.00  0.00     0.210 HD
ENDBRANCH   5   7
ENDBRANCH   4   5
ENDBRANCH   3   4
BRANCH   3   9
HETATM    9  C   UNL     1       2.643  -0.607  -1.608  1.00  0.00     0.303 C 
BRANCH   9  10
HETATM   10  C   UNL     1       2.477  -2.150  -1.521  1.00  0.00     0.142 C 
HETATM   11  C   UNL     1       1.068  -2.686  -1.733  1.00  0.00     0.041 C 
BRANCH  10  12
HETATM   12  O   UNL     1       3.315  -2.746  -2.525  1.00  0.00    -0.394 OA
HETATM   13  H   UNL     1       2.937  -2.531  -3.395  1.00  0.00     0.210 HD
ENDBRANCH  10  12
ENDBRANCH   9  10
ENDBRANCH   3   9
ENDBRANCH   2   3
ENDBRANCH   1   2
BRANCH   1  14
HETATM   14  N   UNL     1       4.864   2.745   0.529  1.00  0.00     0.095 N 
BRANCH  14  15
HETATM   15  C   UNL     1       4.636   3.080   1.960  1.00  0.00     0.303 C 
BRANCH  15  16
HETATM   16  C   UNL     1       3.259   2.923   2.653  1.00  0.00     0.142 C 
HETATM   17  C   UNL     1       2.978   1.524   3.183  1.00  0.00     0.041 C 
BRANCH  16  18
HETATM   18  O   UNL     1       3.240   3.807   3.788  1.00  0.00    -0.394 OA
HETATM   19  H   UNL     1       2.347   3.762   4.174  1.00  0.00     0.210 HD
ENDBRANCH  16  18
ENDBRANCH  15  16
ENDBRANCH  14  15
BRANCH  14  20
HETATM   20  C   UNL     1       6.323   2.789   0.229  1.00  0.00     0.303 C 
BRANCH  20  21
HETATM   21  C   UNL     1       7.065   4.154   0.163  1.00  0.00     0.142 C 
HETATM   22  C   UNL     1       7.199   4.940   1.460  1.00  0.00     0.041 C 
BRANCH  21  23
HETATM   23  O   UNL     1       8.402   3.899  -0.307  1.00  0.00    -0.394 OA
HETATM   24  H   UNL     1       8.881   3.441   0.405  1.00  0.00     0.210 HD
ENDBRANCH  21  23
ENDBRANCH  20  21
ENDBRANCH  14  20
ENDBRANCH   1  14
TORSDOF 15
