REMARK  22 active torsions:
REMARK  status: ('A' for Active; 'I' for Inactive)
REMARK    1  A    between atoms: C_1  and  C_2 
REMARK    2  A    between atoms: C_1  and  O_11 
REMARK    3  A    between atoms: C_2  and  C_3 
REMARK    4  A    between atoms: C_3  and  C_4 
REMARK    5  A    between atoms: C_4  and  C_5 
REMARK    6  A    between atoms: C_5  and  C_6 
REMARK    7  A    between atoms: C_6  and  C_7 
REMARK    8  A    between atoms: C_7  and  C_8 
REMARK    9  A    between atoms: C_8  and  C_9 
REMARK   10  A    between atoms: C_9  and  O_13 
REMARK   11  A    between atoms: O_11  and  C_14 
REMARK   12  A    between atoms: O_13  and  C_22 
REMARK   13  A    between atoms: C_14  and  C_15 
REMARK   14  A    between atoms: C_15  and  C_16 
REMARK   15  A    between atoms: C_15  and  C_20 
REMARK   16  A    between atoms: C_16  and  C_17 
REMARK   17  A    between atoms: C_17  and  C_18 
REMARK   18  A    between atoms: C_22  and  C_23 
REMARK   19  A    between atoms: C_23  and  C_24 
REMARK   20  A    between atoms: C_23  and  C_28 
REMARK   21  A    between atoms: C_24  and  C_25 
REMARK   22  A    between atoms: C_25  and  C_26 
ROOT
HETATM    1  C   UNL     1       0.984  -4.178  -2.383  1.00  0.00     0.000 C 
ENDROOT
BRANCH   1   2
HETATM    2  C   UNL     1       0.071  -3.116  -1.802  1.00  0.00     0.000 C 
BRANCH   2   3
HETATM    3  C   UNL     1       0.930  -2.040  -1.135  1.00  0.00     0.010 C 
BRANCH   3   4
HETATM    4  C   UNL     1       0.064  -0.941  -0.542  1.00  0.00     0.111 C 
BRANCH   4   5
HETATM    5  C   UNL     1       0.878   0.044   0.269  1.00  0.00     0.258 C 
HETATM    6  O   UNL     1       2.105   0.036   0.306  1.00  0.00    -0.265 OA
BRANCH   5   7
HETATM    7  O   UNL     1       0.167   0.946   0.992  1.00  0.00    -0.321 OA
BRANCH   7   8
HETATM    8  C   UNL     1      -1.226   1.170   0.724  1.00  0.00     0.183 C 
BRANCH   8   9
HETATM    9  C   UNL     1      -1.667   2.521   1.312  1.00  0.00     0.010 C 
BRANCH   9  10
HETATM   10  C   UNL     1      -1.099   3.727   0.521  1.00  0.00     0.007 C 
BRANCH  10  11
HETATM   11  C   UNL     1       0.431   3.783   0.446  1.00  0.00     0.000 C 
BRANCH  11  12
HETATM   12  C   UNL     1       0.926   5.082  -0.188  1.00  0.00    -0.005 C 
HETATM   13  C   UNL     1       2.446   5.116  -0.249  1.00  0.00     0.005 C 
ENDBRANCH  11  12
ENDBRANCH  10  11
ENDBRANCH   9  10
BRANCH   9  14
HETATM   14  C   UNL     1      -3.212   2.542   1.334  1.00  0.00     0.002 C 
HETATM   15  C   UNL     1      -3.810   3.737   2.058  1.00  0.00     0.005 C 
ENDBRANCH   9  14
ENDBRANCH   8   9
ENDBRANCH   7   8
ENDBRANCH   5   7
ENDBRANCH   4   5
ENDBRANCH   3   4
ENDBRANCH   2   3
ENDBRANCH   1   2
BRANCH   1  16
HETATM   16  C   UNL     1       0.254  -5.369  -3.015  1.00  0.00     0.000 C 
BRANCH  16  17
HETATM   17  C   UNL     1       1.350  -6.321  -3.477  1.00  0.00     0.010 C 
BRANCH  17  18
HETATM   18  C   UNL     1       0.942  -7.591  -4.187  1.00  0.00     0.111 C 
BRANCH  18  19
HETATM   19  C   UNL     1       2.025  -8.566  -4.655  1.00  0.00     0.258 C 
HETATM   20  O   UNL     1       1.687  -9.528  -5.349  1.00  0.00    -0.265 OA
BRANCH  19  21
HETATM   21  O   UNL     1       3.313  -8.483  -4.237  1.00  0.00    -0.321 OA
BRANCH  21  22
HETATM   22  C   UNL     1       4.005  -7.245  -4.012  1.00  0.00     0.183 C 
BRANCH  22  23
HETATM   23  C   UNL     1       5.535  -7.347  -4.153  1.00  0.00     0.010 C 
BRANCH  23  24
HETATM   24  C   UNL     1       5.979  -7.391  -5.631  1.00  0.00     0.007 C 
BRANCH  24  25
HETATM   25  C   UNL     1       5.410  -8.569  -6.423  1.00  0.00     0.000 C 
BRANCH  25  26
HETATM   26  C   UNL     1       5.972  -8.607  -7.844  1.00  0.00    -0.005 C 
HETATM   27  C   UNL     1       5.418  -9.793  -8.617  1.00  0.00     0.005 C 
ENDBRANCH  25  26
ENDBRANCH  24  25
ENDBRANCH  23  24
BRANCH  23  28
HETATM   28  C   UNL     1       6.128  -6.107  -3.433  1.00  0.00     0.002 C 
HETATM   29  C   UNL     1       7.644  -6.047  -3.384  1.00  0.00     0.005 C 
ENDBRANCH  23  28
ENDBRANCH  22  23
ENDBRANCH  21  22
ENDBRANCH  19  21
ENDBRANCH  18  19
ENDBRANCH  17  18
ENDBRANCH  16  17
ENDBRANCH   1  16
TORSDOF 22
