REMARK  8 active torsions:
REMARK  status: ('A' for Active; 'I' for Inactive)
REMARK    1  A    between atoms: C_1  and  C_2 
REMARK    2  A    between atoms: C_1  and  O_4 
REMARK    3  A    between atoms: C_2  and  C_3 
REMARK    4  A    between atoms: C_2  and  O_5 
REMARK    5  A    between atoms: C_3  and  O_6 
REMARK    6  A    between atoms: O_4  and  C_7 
REMARK    7  A    between atoms: O_5  and  C_10 
REMARK    8  A    between atoms: O_6  and  C_13 
ROOT
HETATM    1  C   UNL     1       0.589   0.179   1.473  1.00  0.00     0.180 C 
ENDROOT
BRANCH   1   2
HETATM    2  C   UNL     1       1.053  -0.090   0.032  1.00  0.00     0.213 C 
BRANCH   2   3
HETATM    3  O   UNL     1       2.476  -0.251  -0.022  1.00  0.00    -0.319 OA
BRANCH   3   4
HETATM    4  C   UNL     1       3.006  -0.232  -1.272  1.00  0.00     0.254 C 
HETATM    5  O   UNL     1       2.364  -0.179  -2.312  1.00  0.00    -0.266 OA
HETATM    6  C   UNL     1       4.503  -0.282  -1.212  1.00  0.00     0.126 C 
ENDBRANCH   3   4
ENDBRANCH   2   3
ENDBRANCH   1   2
BRANCH   1   7
HETATM    7  C   UNL     1       1.141   1.508   2.016  1.00  0.00     0.213 C 
BRANCH   7   8
HETATM    8  O   UNL     1       2.570   1.461   2.117  1.00  0.00    -0.319 OA
BRANCH   8   9
HETATM    9  C   UNL     1       3.146   2.628   2.506  1.00  0.00     0.254 C 
HETATM   10  O   UNL     1       2.543   3.652   2.796  1.00  0.00    -0.266 OA
HETATM   11  C   UNL     1       4.639   2.498   2.529  1.00  0.00     0.126 C 
ENDBRANCH   8   9
ENDBRANCH   7   8
ENDBRANCH   1   7
BRANCH   1  12
HETATM   12  O   UNL     1      -0.855   0.223   1.453  1.00  0.00    -0.312 OA
BRANCH  12  13
HETATM   13  C   UNL     1      -1.473  -0.000   2.644  1.00  0.00     0.255 C 
HETATM   14  O   UNL     1      -0.903  -0.228   3.701  1.00  0.00    -0.266 OA
HETATM   15  C   UNL     1      -2.959   0.127   2.500  1.00  0.00     0.126 C 
ENDBRANCH  12  13
ENDBRANCH   1  12
TORSDOF 8
