REMARK  6 active torsions:
REMARK  status: ('A' for Active; 'I' for Inactive)
REMARK    1  A    between atoms: C_1  and  C_2 
REMARK    2  A    between atoms: C_1  and  O_9 
REMARK    3  A    between atoms: C_2  and  C_3 
REMARK    4  A    between atoms: C_3  and  C_4 
REMARK    5  A    between atoms: C_4  and  C_5 
REMARK    6  A    between atoms: C_5  and  C_6 
ROOT
HETATM    1  C   UNL     1      -0.918  -0.650  -1.294  1.00  0.00    -0.016 C 
HETATM    2  C   UNL     1      -1.551  -1.466  -2.433  1.00  0.00     0.010 C 
ENDROOT
BRANCH   1   3
HETATM    3  C   UNL     1       0.618  -0.784  -1.407  1.00  0.00     0.030 C 
BRANCH   3   4
HETATM    4  C   UNL     1       1.422  -0.331  -0.193  1.00  0.00     0.164 C 
BRANCH   4   5
HETATM    5  O   UNL     1       2.732  -0.888  -0.243  1.00  0.00    -0.401 OA
HETATM    6  H   UNL     1       2.644  -1.850  -0.138  1.00  0.00     0.209 HD
ENDBRANCH   4   5
ENDBRANCH   3   4
ENDBRANCH   1   3
BRANCH   1   7
HETATM    7  C   UNL     1      -1.459   0.799  -1.357  1.00  0.00     0.008 C 
BRANCH   7   8
HETATM    8  C   UNL     1      -1.259   1.579  -0.054  1.00  0.00     0.027 C 
BRANCH   8   9
HETATM    9  C   UNL     1      -1.776   2.991  -0.088  1.00  0.00    -0.025 C 
HETATM   10  C   UNL     1      -1.422   3.945   0.796  1.00  0.00    -0.091 C 
HETATM   11  C   UNL     1      -0.497   3.717   1.965  1.00  0.00     0.042 C 
HETATM   12  C   UNL     1      -1.940   5.354   0.688  1.00  0.00     0.042 C 
ENDBRANCH   8   9
ENDBRANCH   7   8
ENDBRANCH   1   7
TORSDOF 6
