REMARK  5 active torsions:
REMARK  status: ('A' for Active; 'I' for Inactive)
REMARK    1  A    between atoms: C_1  and  C_2 
REMARK    2  A    between atoms: C_1  and  O_9 
REMARK    3  A    between atoms: C_3  and  C_4 
REMARK    4  A    between atoms: C_4  and  C_5 
REMARK    5  A    between atoms: C_5  and  C_6 
ROOT
HETATM    1  C   UNL     1       0.474   0.219   1.269  1.00  0.00     0.001 C 
HETATM    2  C   UNL     1      -0.819   0.341   1.638  1.00  0.00    -0.085 C 
HETATM    3  C   UNL     1      -1.963   0.190   0.666  1.00  0.00     0.043 C 
ENDROOT
BRANCH   2   4
HETATM    4  C   UNL     1      -1.270   0.622   3.069  1.00  0.00     0.037 C 
BRANCH   4   5
HETATM    5  C   UNL     1      -0.152   0.826   4.105  1.00  0.00     0.031 C 
BRANCH   5   6
HETATM    6  C   UNL     1      -0.645   1.116   5.497  1.00  0.00    -0.024 C 
HETATM    7  C   UNL     1       0.163   1.333   6.556  1.00  0.00    -0.091 C 
HETATM    8  C   UNL     1       1.667   1.317   6.488  1.00  0.00     0.042 C 
HETATM    9  C   UNL     1      -0.395   1.612   7.925  1.00  0.00     0.042 C 
ENDBRANCH   5   6
ENDBRANCH   4   5
ENDBRANCH   2   4
BRANCH   1  10
HETATM   10  C   UNL     1       0.988  -0.047  -0.110  1.00  0.00     0.191 C 
BRANCH  10  11
HETATM   11  O   UNL     1       2.404   0.082  -0.101  1.00  0.00    -0.397 OA
HETATM   12  H   UNL     1       2.604   0.997   0.159  1.00  0.00     0.209 HD
ENDBRANCH  10  11
ENDBRANCH   1  10
TORSDOF 5
