REMARK  5 active torsions:
REMARK  status: ('A' for Active; 'I' for Inactive)
REMARK    1  A    between atoms: C_1  and  C_2 
REMARK    2  A    between atoms: C_1  and  O_9 
REMARK    3  A    between atoms: C_3  and  C_4 
REMARK    4  A    between atoms: C_4  and  C_5 
REMARK    5  A    between atoms: C_5  and  C_6 
ROOT
HETATM    1  C   UNL     1       0.642   1.472  -0.328  1.00  0.00     0.001 C 
HETATM    2  C   UNL     1      -0.710   1.504  -0.373  1.00  0.00    -0.085 C 
HETATM    3  C   UNL     1      -1.385   2.816  -0.718  1.00  0.00     0.043 C 
ENDROOT
BRANCH   2   4
HETATM    4  C   UNL     1      -1.714   0.385  -0.098  1.00  0.00     0.037 C 
BRANCH   4   5
HETATM    5  C   UNL     1      -1.147  -0.994   0.243  1.00  0.00     0.031 C 
BRANCH   5   6
HETATM    6  C   UNL     1      -2.146  -2.079   0.534  1.00  0.00    -0.024 C 
HETATM    7  C   UNL     1      -1.782  -3.338   0.860  1.00  0.00    -0.091 C 
HETATM    8  C   UNL     1      -0.350  -3.797   0.975  1.00  0.00     0.042 C 
HETATM    9  C   UNL     1      -2.797  -4.411   1.138  1.00  0.00     0.042 C 
ENDBRANCH   5   6
ENDBRANCH   4   5
ENDBRANCH   2   4
BRANCH   1  10
HETATM   10  C   UNL     1       1.568   0.344  -0.001  1.00  0.00     0.191 C 
BRANCH  10  11
HETATM   11  O   UNL     1       2.906   0.762  -0.246  1.00  0.00    -0.397 OA
HETATM   12  H   UNL     1       3.044   0.697  -1.206  1.00  0.00     0.209 HD
ENDBRANCH  10  11
ENDBRANCH   1  10
TORSDOF 5
