REMARK  4 active torsions:
REMARK  status: ('A' for Active; 'I' for Inactive)
REMARK    1  A    between atoms: C_1  and  C_2 
REMARK    2  A    between atoms: C_1  and  O_5 
REMARK    3  A    between atoms: C_2  and  C_3 
REMARK    4  A    between atoms: C_3  and  O_6 
ROOT
HETATM    1  C   UNL     1       0.591   1.372   0.210  1.00  0.00     0.057 C 
ENDROOT
BRANCH   1   2
HETATM    2  C   UNL     1       1.184   0.002  -0.080  1.00  0.00     0.166 C 
BRANCH   2   3
HETATM    3  O   UNL     1       2.603   0.091  -0.114  1.00  0.00    -0.401 OA
HETATM    4  H   UNL     1       2.844   0.692  -0.841  1.00  0.00     0.209 HD
ENDBRANCH   2   3
ENDBRANCH   1   2
BRANCH   1   5
HETATM    5  C   UNL     1      -0.937   1.386   0.214  1.00  0.00     0.116 C 
HETATM    6  C   UNL     1      -1.554   0.557   1.333  1.00  0.00     0.039 C 
BRANCH   5   7
HETATM    7  O   UNL     1      -1.378   2.737   0.355  1.00  0.00    -0.396 OA
HETATM    8  H   UNL     1      -1.081   3.061   1.223  1.00  0.00     0.210 HD
ENDBRANCH   5   7
ENDBRANCH   1   5
TORSDOF 4
