REMARK  3 active torsions:
REMARK  status: ('A' for Active; 'I' for Inactive)
REMARK    1  A    between atoms: C_2  and  C_3 
REMARK    2  A    between atoms: C_2  and  O_6 
REMARK    3  A    between atoms: C_3  and  C_4 
ROOT
HETATM    1  C   UNL     1       0.952   0.201  -0.292  1.00  0.00     0.039 C 
HETATM    2  C   UNL     1       2.424  -0.035   0.015  1.00  0.00     0.114 C 
ENDROOT
BRANCH   2   3
HETATM    3  C   UNL     1       2.768  -1.438   0.533  1.00  0.00     0.035 C 
BRANCH   3   4
HETATM    4  C   UNL     1       2.398  -1.749   1.996  1.00  0.00    -0.020 C 
HETATM    5  C   UNL     1       0.896  -1.909   2.227  1.00  0.00     0.009 C 
HETATM    6  C   UNL     1       3.106  -3.039   2.431  1.00  0.00     0.009 C 
ENDBRANCH   3   4
ENDBRANCH   2   3
BRANCH   2   7
HETATM    7  O   UNL     1       3.147   0.161  -1.207  1.00  0.00    -0.396 OA
HETATM    8  H   UNL     1       2.833  -0.500  -1.847  1.00  0.00     0.210 HD
ENDBRANCH   2   7
TORSDOF 3
