REMARK  1 active torsions:
REMARK  status: ('A' for Active; 'I' for Inactive)
REMARK    1  A    between atoms: C_1  and  N_7 
ROOT
HETATM    1  C   UNL     1      -0.646  -1.272  -0.089  1.00  0.00     0.006 A 
HETATM    2  C   UNL     1      -1.398  -0.102   0.035  1.00  0.00     0.023 A 
HETATM    3  C   UNL     1      -0.777   1.148   0.033  1.00  0.00     0.002 A 
HETATM    4  C   UNL     1       0.612   1.238  -0.053  1.00  0.00     0.007 A 
HETATM    5  C   UNL     1       1.388   0.077  -0.127  1.00  0.00    -0.060 A 
HETATM    6  C   UNL     1       0.749  -1.172  -0.111  1.00  0.00     0.030 A 
HETATM    7  C   UNL     1       2.885   0.158  -0.147  1.00  0.00     0.048 C 
ENDROOT
BRANCH   1   8
HETATM    8  N   UNL     1      -1.261  -2.524   0.045  1.00  0.00    -0.303 NA
HETATM    9  H   UNL     1      -2.230  -2.532  -0.259  1.00  0.00     0.124 HD
HETATM   10  H   UNL     1      -0.725  -3.283  -0.362  1.00  0.00     0.124 HD
ENDBRANCH   1   8
TORSDOF 1
