REMARK  0 active torsions:
REMARK  status: ('A' for Active; 'I' for Inactive)
ROOT
HETATM    1  C   UNL     1      -0.695   1.216   0.001  1.00  0.00    -0.061 A 
HETATM    2  C   UNL     1      -1.390   0.000   0.003  1.00  0.00     0.013 A 
HETATM    3  C   UNL     1      -0.700  -1.218   0.001  1.00  0.00    -0.061 A 
HETATM    4  C   UNL     1       0.701  -1.212  -0.002  1.00  0.00     0.013 A 
HETATM    5  C   UNL     1       1.412  -0.007  -0.004  1.00  0.00    -0.061 A 
HETATM    6  C   UNL     1       0.706   1.202  -0.002  1.00  0.00     0.013 A 
HETATM    7  C   UNL     1      -1.429   2.524   0.003  1.00  0.00     0.048 C 
HETATM    8  C   UNL     1       2.912   0.004  -0.007  1.00  0.00     0.048 C 
HETATM    9  C   UNL     1      -1.440  -2.523   0.003  1.00  0.00     0.048 C 
ENDROOT
TORSDOF 0
