REMARK  7 active torsions:
REMARK  status: ('A' for Active; 'I' for Inactive)
REMARK    1  A    between atoms: C_1  and  C_2 
REMARK    2  A    between atoms: C_1  and  O_10 
REMARK    3  A    between atoms: C_2  and  C_3 
REMARK    4  A    between atoms: C_3  and  C_4 
REMARK    5  A    between atoms: C_4  and  C_5 
REMARK    6  A    between atoms: C_5  and  C_6 
REMARK    7  A    between atoms: C_6  and  C_7 
ROOT
HETATM    1  C   UNL     1       1.165   1.485   1.941  1.00  0.00     0.010 C 
ENDROOT
BRANCH   1   2
HETATM    2  C   UNL     1       0.211   0.731   1.011  1.00  0.00     0.111 C 
BRANCH   2   3
HETATM    3  C   UNL     1       0.963  -0.098  -0.011  1.00  0.00     0.258 C 
HETATM    4  O   UNL     1       2.188  -0.141  -0.065  1.00  0.00    -0.265 OA
BRANCH   3   5
HETATM    5  O   UNL     1       0.214  -0.811  -0.891  1.00  0.00    -0.326 OA
HETATM    6  C   UNL     1      -1.219  -0.787  -0.861  1.00  0.00     0.213 C 
ENDBRANCH   3   5
ENDBRANCH   2   3
ENDBRANCH   1   2
BRANCH   1   7
HETATM    7  C   UNL     1       0.404   2.320   2.971  1.00  0.00     0.000 C 
BRANCH   7   8
HETATM    8  C   UNL     1       1.369   3.068   3.894  1.00  0.00     0.000 C 
BRANCH   8   9
HETATM    9  C   UNL     1       0.619   3.908   4.929  1.00  0.00    -0.000 C 
BRANCH   9  10
HETATM   10  C   UNL     1       1.590   4.652   5.846  1.00  0.00    -0.005 C 
HETATM   11  C   UNL     1       0.853   5.489   6.879  1.00  0.00     0.005 C 
ENDBRANCH   9  10
ENDBRANCH   8   9
ENDBRANCH   7   8
ENDBRANCH   1   7
TORSDOF 7
