REMARK  11 active torsions:
REMARK  status: ('A' for Active; 'I' for Inactive)
REMARK    1  A    between atoms: C_1  and  C_2 
REMARK    2  A    between atoms: C_1  and  N_13 
REMARK    3  A    between atoms: C_2  and  C_3 
REMARK    4  A    between atoms: C_3  and  C_4 
REMARK    5  A    between atoms: C_4  and  C_5 
REMARK    6  A    between atoms: C_5  and  C_6 
REMARK    7  A    between atoms: C_6  and  C_7 
REMARK    8  A    between atoms: C_7  and  C_8 
REMARK    9  A    between atoms: C_8  and  C_9 
REMARK   10  A    between atoms: C_9  and  C_10 
REMARK   11  A    between atoms: C_10  and  C_11 
ROOT
HETATM    1  C   UNL     1      -1.663   1.255   2.510  1.00  0.00     0.000 C 
ENDROOT
BRANCH   1   2
HETATM    2  C   UNL     1      -1.104   0.631   1.230  1.00  0.00     0.002 C 
BRANCH   2   3
HETATM    3  C   UNL     1       0.428   0.639   1.245  1.00  0.00     0.028 C 
BRANCH   3   4
HETATM    4  C   UNL     1       0.990   0.017  -0.033  1.00  0.00     0.236 C 
BRANCH   4   5
HETATM    5  N   UNL     1       2.531  -0.006  -0.080  1.00  0.00    -0.079 N 
HETATM    6  C   UNL     1       2.946  -0.651  -1.406  1.00  0.00     0.271 C 
HETATM    7  C   UNL     1       3.114   1.402  -0.034  1.00  0.00     0.271 C 
HETATM    8  C   UNL     1       3.114  -0.838   1.057  1.00  0.00     0.271 C 
ENDBRANCH   4   5
ENDBRANCH   3   4
ENDBRANCH   2   3
ENDBRANCH   1   2
BRANCH   1   9
HETATM    9  C   UNL     1      -3.191   1.259   2.520  1.00  0.00     0.000 C 
BRANCH   9  10
HETATM   10  C   UNL     1      -3.726   1.887   3.808  1.00  0.00     0.000 C 
BRANCH  10  11
HETATM   11  C   UNL     1      -5.254   1.900   3.836  1.00  0.00     0.000 C 
BRANCH  11  12
HETATM   12  C   UNL     1      -5.775   2.530   5.130  1.00  0.00     0.000 C 
BRANCH  12  13
HETATM   13  C   UNL     1      -7.303   2.547   5.165  1.00  0.00     0.000 C 
BRANCH  13  14
HETATM   14  C   UNL     1      -7.820   3.177   6.460  1.00  0.00    -0.000 C 
BRANCH  14  15
HETATM   15  C   UNL     1      -9.348   3.195   6.497  1.00  0.00    -0.005 C 
HETATM   16  C   UNL     1      -9.867   3.820   7.782  1.00  0.00     0.005 C 
ENDBRANCH  14  15
ENDBRANCH  13  14
ENDBRANCH  12  13
ENDBRANCH  11  12
ENDBRANCH  10  11
ENDBRANCH   9  10
ENDBRANCH   1   9
TORSDOF 11
