REMARK  8 active torsions:
REMARK  status: ('A' for Active; 'I' for Inactive)
REMARK    1  A    between atoms: C_1  and  C_2 
REMARK    2  A    between atoms: C_1  and  O_3 
REMARK    3  A    between atoms: C_2  and  O_4 
REMARK    4  A    between atoms: O_4  and  C_5 
REMARK    5  A    between atoms: C_5  and  C_6 
REMARK    6  A    between atoms: C_6  and  C_7 
REMARK    7  A    between atoms: C_7  and  C_8 
REMARK    8  A    between atoms: C_8  and  C_9 
ROOT
HETATM    1  C   UNL     1      -1.353   0.708   2.822  1.00  0.00     0.167 C 
ENDROOT
BRANCH   1   2
HETATM    2  O   UNL     1      -0.882   0.428   1.504  1.00  0.00    -0.389 OA
BRANCH   2   3
HETATM    3  C   UNL     1       0.542   0.381   1.458  1.00  0.00     0.193 C 
BRANCH   3   4
HETATM    4  C   UNL     1       0.998   0.066   0.038  1.00  0.00     0.190 C 
BRANCH   4   5
HETATM    5  O   UNL     1       2.418   0.063  -0.052  1.00  0.00    -0.399 OA
HETATM    6  H   UNL     1       2.716   0.982   0.058  1.00  0.00     0.209 HD
ENDBRANCH   4   5
ENDBRANCH   3   4
ENDBRANCH   2   3
ENDBRANCH   1   2
BRANCH   1   7
HETATM    7  C   UNL     1      -2.878   0.718   2.800  1.00  0.00     0.026 C 
BRANCH   7   8
HETATM    8  C   UNL     1      -3.452   1.024   4.182  1.00  0.00     0.002 C 
BRANCH   8   9
HETATM    9  C   UNL     1      -4.981   1.025   4.170  1.00  0.00    -0.000 C 
BRANCH   9  10
HETATM   10  C   UNL     1      -5.543   1.339   5.556  1.00  0.00    -0.005 C 
HETATM   11  C   UNL     1      -7.063   1.339   5.557  1.00  0.00     0.005 C 
ENDBRANCH   9  10
ENDBRANCH   8   9
ENDBRANCH   7   8
ENDBRANCH   1   7
TORSDOF 8
