REMARK  11 active torsions:
REMARK  status: ('A' for Active; 'I' for Inactive)
REMARK    1  A    between atoms: C_1  and  C_2 
REMARK    2  A    between atoms: C_1  and  O_13 
REMARK    3  A    between atoms: C_2  and  C_3 
REMARK    4  A    between atoms: C_3  and  C_4 
REMARK    5  A    between atoms: C_4  and  C_5 
REMARK    6  A    between atoms: C_5  and  C_6 
REMARK    7  A    between atoms: C_6  and  C_7 
REMARK    8  A    between atoms: C_7  and  C_8 
REMARK    9  A    between atoms: C_8  and  C_9 
REMARK   10  A    between atoms: C_9  and  C_10 
REMARK   11  A    between atoms: C_10  and  C_11 
ROOT
HETATM    1  C   UNL     1      -2.958  -2.008  -2.122  1.00  0.00     0.000 C 
ENDROOT
BRANCH   1   2
HETATM    2  C   UNL     1      -1.429  -1.990  -2.102  1.00  0.00     0.000 C 
BRANCH   2   3
HETATM    3  C   UNL     1      -0.898  -0.995  -1.068  1.00  0.00     0.002 C 
BRANCH   3   4
HETATM    4  C   UNL     1       0.628  -0.979  -1.046  1.00  0.00     0.026 C 
BRANCH   4   5
HETATM    5  C   UNL     1       1.164   0.009  -0.018  1.00  0.00     0.164 C 
BRANCH   5   6
HETATM    6  O   UNL     1       2.585   0.006  -0.040  1.00  0.00    -0.401 OA
HETATM    7  H   UNL     1       2.879  -0.895   0.177  1.00  0.00     0.209 HD
ENDBRANCH   5   6
ENDBRANCH   4   5
ENDBRANCH   3   4
ENDBRANCH   2   3
ENDBRANCH   1   2
BRANCH   1   8
HETATM    8  C   UNL     1      -3.490  -3.003  -3.155  1.00  0.00     0.000 C 
BRANCH   8   9
HETATM    9  C   UNL     1      -5.019  -3.022  -3.174  1.00  0.00     0.000 C 
BRANCH   9  10
HETATM   10  C   UNL     1      -5.550  -4.017  -4.207  1.00  0.00     0.000 C 
BRANCH  10  11
HETATM   11  C   UNL     1      -7.080  -4.036  -4.226  1.00  0.00     0.000 C 
BRANCH  11  12
HETATM   12  C   UNL     1      -7.610  -5.032  -5.260  1.00  0.00    -0.000 C 
BRANCH  12  13
HETATM   13  C   UNL     1      -9.138  -5.051  -5.279  1.00  0.00    -0.005 C 
HETATM   14  C   UNL     1      -9.669  -6.039  -6.306  1.00  0.00     0.005 C 
ENDBRANCH  12  13
ENDBRANCH  11  12
ENDBRANCH  10  11
ENDBRANCH   9  10
ENDBRANCH   8   9
ENDBRANCH   1   8
TORSDOF 11
