REMARK  10 active torsions:
REMARK  status: ('A' for Active; 'I' for Inactive)
REMARK    1  A    between atoms: C_1  and  C_2 
REMARK    2  A    between atoms: C_1  and  O_12 
REMARK    3  A    between atoms: C_2  and  C_3 
REMARK    4  A    between atoms: C_3  and  C_4 
REMARK    5  A    between atoms: C_4  and  C_5 
REMARK    6  A    between atoms: C_5  and  C_6 
REMARK    7  A    between atoms: C_6  and  C_7 
REMARK    8  A    between atoms: C_7  and  C_8 
REMARK    9  A    between atoms: C_8  and  C_9 
REMARK   10  A    between atoms: C_9  and  C_10 
ROOT
HETATM    1  C   UNL     1      -2.993   1.597  -2.470  1.00  0.00     0.000 C 
ENDROOT
BRANCH   1   2
HETATM    2  C   UNL     1      -1.464   1.581  -2.447  1.00  0.00     0.000 C 
BRANCH   2   3
HETATM    3  C   UNL     1      -0.934   0.783  -1.255  1.00  0.00     0.002 C 
BRANCH   3   4
HETATM    4  C   UNL     1       0.593   0.763  -1.232  1.00  0.00     0.026 C 
BRANCH   4   5
HETATM    5  C   UNL     1       1.126  -0.031  -0.047  1.00  0.00     0.164 C 
BRANCH   5   6
HETATM    6  O   UNL     1       2.547  -0.011  -0.054  1.00  0.00    -0.401 OA
HETATM    7  H   UNL     1       2.842  -0.415  -0.888  1.00  0.00     0.209 HD
ENDBRANCH   5   6
ENDBRANCH   4   5
ENDBRANCH   3   4
ENDBRANCH   2   3
ENDBRANCH   1   2
BRANCH   1   8
HETATM    8  C   UNL     1      -3.525   2.395  -3.661  1.00  0.00     0.000 C 
BRANCH   8   9
HETATM    9  C   UNL     1      -5.054   2.408  -3.682  1.00  0.00     0.000 C 
BRANCH   9  10
HETATM   10  C   UNL     1      -5.589   3.205  -4.872  1.00  0.00     0.000 C 
BRANCH  10  11
HETATM   11  C   UNL     1      -7.119   3.217  -4.890  1.00  0.00    -0.000 C 
BRANCH  11  12
HETATM   12  C   UNL     1      -7.656   4.013  -6.080  1.00  0.00    -0.005 C 
HETATM   13  C   UNL     1      -9.176   4.026  -6.100  1.00  0.00     0.005 C 
ENDBRANCH  11  12
ENDBRANCH  10  11
ENDBRANCH   9  10
ENDBRANCH   8   9
ENDBRANCH   1   8
TORSDOF 10
