REMARK  13 active torsions:
REMARK  status: ('A' for Active; 'I' for Inactive)
REMARK    1  A    between atoms: C_1  and  C_2 
REMARK    2  A    between atoms: C_1  and  O_15 
REMARK    3  A    between atoms: C_2  and  C_3 
REMARK    4  A    between atoms: C_3  and  C_4 
REMARK    5  A    between atoms: C_4  and  C_5 
REMARK    6  A    between atoms: C_5  and  C_6 
REMARK    7  A    between atoms: C_6  and  C_7 
REMARK    8  A    between atoms: C_7  and  C_8 
REMARK    9  A    between atoms: C_8  and  C_9 
REMARK   10  A    between atoms: C_9  and  C_10 
REMARK   11  A    between atoms: C_10  and  C_11 
REMARK   12  A    between atoms: C_11  and  C_12 
REMARK   13  A    between atoms: C_12  and  C_13 
ROOT
HETATM    1  C   UNL     1      -3.502  -1.802   3.935  1.00  0.00     0.000 C 
ENDROOT
BRANCH   1   2
HETATM    2  C   UNL     1      -2.970  -1.229   2.620  1.00  0.00     0.000 C 
BRANCH   2   3
HETATM    3  C   UNL     1      -1.441  -1.217   2.596  1.00  0.00     0.000 C 
BRANCH   3   4
HETATM    4  C   UNL     1      -0.910  -0.643   1.282  1.00  0.00     0.002 C 
BRANCH   4   5
HETATM    5  C   UNL     1       0.616  -0.628   1.258  1.00  0.00     0.026 C 
BRANCH   5   6
HETATM    6  C   UNL     1       1.151  -0.056  -0.049  1.00  0.00     0.164 C 
BRANCH   6   7
HETATM    7  O   UNL     1       2.572  -0.074  -0.037  1.00  0.00    -0.401 OA
HETATM    8  H   UNL     1       2.866   0.470   0.713  1.00  0.00     0.209 HD
ENDBRANCH   6   7
ENDBRANCH   5   6
ENDBRANCH   4   5
ENDBRANCH   3   4
ENDBRANCH   2   3
ENDBRANCH   1   2
BRANCH   1   9
HETATM    9  C   UNL     1      -5.031  -1.812   3.958  1.00  0.00     0.000 C 
BRANCH   9  10
HETATM   10  C   UNL     1      -5.564  -2.385   5.272  1.00  0.00     0.000 C 
BRANCH  10  11
HETATM   11  C   UNL     1      -7.093  -2.395   5.296  1.00  0.00     0.000 C 
BRANCH  11  12
HETATM   12  C   UNL     1      -7.625  -2.969   6.610  1.00  0.00     0.000 C 
BRANCH  12  13
HETATM   13  C   UNL     1      -9.154  -2.980   6.635  1.00  0.00     0.000 C 
BRANCH  13  14
HETATM   14  C   UNL     1      -9.685  -3.554   7.949  1.00  0.00    -0.000 C 
BRANCH  14  15
HETATM   15  C   UNL     1     -11.213  -3.565   7.975  1.00  0.00    -0.005 C 
HETATM   16  C   UNL     1     -11.743  -4.135   9.281  1.00  0.00     0.005 C 
ENDBRANCH  14  15
ENDBRANCH  13  14
ENDBRANCH  12  13
ENDBRANCH  11  12
ENDBRANCH  10  11
ENDBRANCH   9  10
ENDBRANCH   1   9
TORSDOF 13
