REMARK  10 active torsions:
REMARK  status: ('A' for Active; 'I' for Inactive)
REMARK    1  A    between atoms: C_1  and  C_2 
REMARK    2  A    between atoms: C_1  and  O_3 
REMARK    3  A    between atoms: C_2  and  O_7 
REMARK    4  A    between atoms: O_3  and  C_16 
REMARK    5  A    between atoms: C_4  and  C_5 
REMARK    6  A    between atoms: C_4  and  O_6 
REMARK    7  A    between atoms: C_5  and  O_7 
REMARK    8  A    between atoms: O_6  and  C_8 
REMARK    9  A    between atoms: C_8  and  C_10 
REMARK   10  A    between atoms: C_16  and  C_18 
ROOT
HETATM    1  O   UNL     1      -0.861  -1.162  -0.906  1.00  0.00    -0.387 OA
ENDROOT
BRANCH   1   2
HETATM    2  C   UNL     1       0.566  -1.137  -0.905  1.00  0.00     0.194 C 
BRANCH   2   3
HETATM    3  C   UNL     1       1.065  -0.042   0.033  1.00  0.00     0.205 C 
BRANCH   3   4
HETATM    4  O   UNL     1       2.500  -0.041   0.027  1.00  0.00    -0.315 OA
BRANCH   4   5
HETATM    5  C   UNL     1       3.054   0.870   0.868  1.00  0.00     0.293 C 
HETATM    6  O   UNL     1       2.439   1.656   1.572  1.00  0.00    -0.259 OA
BRANCH   5   7
HETATM    7  C   UNL     1       4.539   0.772   0.854  1.00  0.00     0.039 A 
HETATM    8  C   UNL     1       5.234  -0.018  -0.072  1.00  0.00     0.017 A 
HETATM    9  C   UNL     1       6.630  -0.079  -0.032  1.00  0.00     0.001 A 
HETATM   10  C   UNL     1       7.336   0.645   0.928  1.00  0.00     0.000 A 
HETATM   11  C   UNL     1       6.652   1.437   1.849  1.00  0.00     0.001 A 
HETATM   12  C   UNL     1       5.258   1.503   1.810  1.00  0.00     0.017 A 
ENDBRANCH   5   7
ENDBRANCH   4   5
ENDBRANCH   3   4
ENDBRANCH   2   3
ENDBRANCH   1   2
BRANCH   1  13
HETATM   13  C   UNL     1      -1.369  -2.197  -1.749  1.00  0.00     0.194 C 
BRANCH  13  14
HETATM   14  C   UNL     1      -2.894  -2.199  -1.711  1.00  0.00     0.205 C 
BRANCH  14  15
HETATM   15  O   UNL     1      -3.373  -3.300  -2.495  1.00  0.00    -0.315 OA
BRANCH  15  16
HETATM   16  C   UNL     1      -4.692  -3.238  -2.795  1.00  0.00     0.293 C 
HETATM   17  O   UNL     1      -5.489  -2.381  -2.461  1.00  0.00    -0.259 OA
BRANCH  16  18
HETATM   18  C   UNL     1      -5.009  -4.348  -3.710  1.00  0.00     0.039 A 
HETATM   19  C   UNL     1      -4.841  -5.677  -3.306  1.00  0.00     0.017 A 
HETATM   20  C   UNL     1      -5.149  -6.708  -4.195  1.00  0.00     0.001 A 
HETATM   21  C   UNL     1      -5.611  -6.410  -5.479  1.00  0.00     0.000 A 
HETATM   22  C   UNL     1      -5.782  -5.082  -5.875  1.00  0.00     0.001 A 
HETATM   23  C   UNL     1      -5.491  -4.047  -4.987  1.00  0.00     0.017 A 
ENDBRANCH  16  18
ENDBRANCH  15  16
ENDBRANCH  14  15
ENDBRANCH  13  14
ENDBRANCH   1  13
TORSDOF 10
