REMARK  5 active torsions:
REMARK  status: ('A' for Active; 'I' for Inactive)
REMARK    1  A    between atoms: C_1  and  O_2 
REMARK    2  A    between atoms: C_3  and  C_8 
REMARK    3  A    between atoms: C_7  and  C_13 
REMARK    4  A    between atoms: C_8  and  C_9 
REMARK    5  A    between atoms: C_13  and  C_14 
ROOT
HETATM    1  C   UNL     1      -1.457   0.012   0.100  1.00  0.00     0.072 A 
HETATM    2  C   UNL     1      -0.773  -1.196  -0.070  1.00  0.00    -0.017 A 
HETATM    3  C   UNL     1      -0.783   1.228   0.206  1.00  0.00     0.037 A 
HETATM    4  C   UNL     1       0.607   1.277   0.116  1.00  0.00     0.011 A 
HETATM    5  C   UNL     1       0.644  -1.107  -0.118  1.00  0.00     0.018 A 
HETATM    6  C   UNL     1       1.357   0.106  -0.047  1.00  0.00    -0.050 A 
ENDROOT
BRANCH   2   7
HETATM    7  C   UNL     1      -1.415  -2.597  -0.199  1.00  0.00    -0.018 C 
HETATM    8  C   UNL     1      -1.006  -3.425   1.049  1.00  0.00     0.020 C 
HETATM    9  C   UNL     1      -2.960  -2.645  -0.242  1.00  0.00     0.020 C 
BRANCH   7  10
HETATM   10  C   UNL     1      -0.887  -3.344  -1.470  1.00  0.00     0.009 C 
HETATM   11  C   UNL     1      -1.114  -2.613  -2.792  1.00  0.00     0.006 C 
ENDBRANCH   7  10
ENDBRANCH   2   7
BRANCH   1  12
HETATM   12  O   UNL     1      -2.815   0.107   0.156  1.00  0.00    -0.360 OA
HETATM   13  H   UNL     1      -3.127  -0.086  -0.745  1.00  0.00     0.217 HD
ENDBRANCH   1  12
BRANCH   6  14
HETATM   14  C   UNL     1       2.889   0.171  -0.202  1.00  0.00    -0.021 C 
HETATM   15  C   UNL     1       3.497   1.026   0.941  1.00  0.00     0.020 C 
HETATM   16  C   UNL     1       3.588  -1.208  -0.109  1.00  0.00     0.020 C 
BRANCH  14  17
HETATM   17  C   UNL     1       3.256   0.845  -1.559  1.00  0.00     0.009 C 
HETATM   18  C   UNL     1       2.742   0.132  -2.807  1.00  0.00     0.006 C 
ENDBRANCH  14  17
ENDBRANCH   6  14
TORSDOF 5
