REMARK  7 active torsions:
REMARK  status: ('A' for Active; 'I' for Inactive)
REMARK    1  A    between atoms: C_1  and  C_2 
REMARK    2  A    between atoms: C_1  and  O_4 
REMARK    3  A    between atoms: C_2  and  C_3 
REMARK    4  A    between atoms: C_2  and  C_6 
REMARK    5  A    between atoms: C_2  and  N_8 
REMARK    6  A    between atoms: C_3  and  O_5 
REMARK    7  A    between atoms: C_6  and  O_7 
ROOT
HETATM    1  C   UNL     1       0.437  -1.181   0.814  1.00  0.00     0.159 C 
ENDROOT
BRANCH   1   2
HETATM    2  C   UNL     1       0.939   0.003  -0.029  1.00  0.00     0.206 C 
BRANCH   2   3
HETATM    3  O   UNL     1       2.367   0.045  -0.122  1.00  0.00    -0.398 OA
HETATM    4  H   UNL     1       2.720   0.052   0.793  1.00  0.00     0.209 HD
ENDBRANCH   2   3
ENDBRANCH   1   2
BRANCH   1   5
HETATM    5  C   UNL     1       0.833  -2.531   0.194  1.00  0.00     0.206 C 
BRANCH   5   6
HETATM    6  O   UNL     1       0.379  -2.682  -1.150  1.00  0.00    -0.398 OA
HETATM    7  H   UNL     1      -0.495  -3.114  -1.140  1.00  0.00     0.209 HD
ENDBRANCH   5   6
ENDBRANCH   1   5
BRANCH   1   8
HETATM    8  C   UNL     1       0.924  -1.078   2.269  1.00  0.00     0.206 C 
BRANCH   8   9
HETATM    9  O   UNL     1       2.347  -0.956   2.354  1.00  0.00    -0.398 OA
HETATM   10  H   UNL     1       2.726  -1.848   2.467  1.00  0.00     0.209 HD
ENDBRANCH   8   9
ENDBRANCH   1   8
BRANCH   1  11
HETATM   11  N   UNL     1      -1.077  -1.145   0.885  1.00  0.00    -0.139 N 
HETATM   12  O   UNL     1      -1.675  -0.177   0.398  1.00  0.00    -0.536 OA
HETATM   13  O   UNL     1      -1.633  -2.092   1.461  1.00  0.00    -0.536 OA
ENDBRANCH   1  11
TORSDOF 7
