REMARK  9 active torsions:
REMARK  status: ('A' for Active; 'I' for Inactive)
REMARK    1  A    between atoms: C_2  and  C_3 
REMARK    2  A    between atoms: C_3  and  C_4 
REMARK    3  A    between atoms: C_4  and  C_5 
REMARK    4  A    between atoms: C_4  and  O_11 
REMARK    5  A    between atoms: C_5  and  C_6 
REMARK    6  A    between atoms: C_6  and  C_7 
REMARK    7  A    between atoms: C_7  and  C_8 
REMARK    8  A    between atoms: C_7  and  O_12 
REMARK    9  A    between atoms: C_8  and  C_9 
ROOT
HETATM    1  C   UNL     1       2.984  -0.538  -2.724  1.00  0.00    -0.066 C 
ENDROOT
BRANCH   1   2
HETATM    2  C   UNL     1       2.477   0.820  -2.266  1.00  0.00     0.117 C 
HETATM    3  C   UNL     1       3.085   1.904  -3.161  1.00  0.00     0.060 C 
BRANCH   2   4
HETATM    4  C   UNL     1       2.847   1.086  -0.792  1.00  0.00     0.054 C 
BRANCH   4   5
HETATM    5  C   UNL     1       2.400   0.037   0.255  1.00  0.00    -0.019 C 
HETATM    6  C   UNL     1       0.883  -0.057   0.418  1.00  0.00     0.009 C 
HETATM    7  C   UNL     1       3.030   0.377   1.611  1.00  0.00     0.009 C 
ENDBRANCH   4   5
ENDBRANCH   2   4
BRANCH   2   8
HETATM    8  O   UNL     1       1.066   0.888  -2.447  1.00  0.00    -0.378 OA
HETATM    9  H   UNL     1       0.740  -0.023  -2.542  1.00  0.00     0.211 HD
ENDBRANCH   2   8
ENDBRANCH   1   2
BRANCH   1  10
HETATM   10  C   UNL     1       3.418  -1.703  -3.117  1.00  0.00    -0.066 C 
BRANCH  10  11
HETATM   11  C   UNL     1       3.925  -3.061  -3.575  1.00  0.00     0.117 C 
HETATM   12  C   UNL     1       2.764  -4.041  -3.700  1.00  0.00     0.060 C 
BRANCH  11  13
HETATM   13  C   UNL     1       4.740  -2.917  -4.881  1.00  0.00     0.054 C 
BRANCH  13  14
HETATM   14  C   UNL     1       3.988  -2.559  -6.187  1.00  0.00    -0.019 C 
HETATM   15  C   UNL     1       3.293  -1.196  -6.160  1.00  0.00     0.009 C 
HETATM   16  C   UNL     1       4.976  -2.581  -7.360  1.00  0.00     0.009 C 
ENDBRANCH  13  14
ENDBRANCH  11  13
BRANCH  11  17
HETATM   17  O   UNL     1       4.802  -3.560  -2.563  1.00  0.00    -0.378 OA
HETATM   18  H   UNL     1       5.450  -2.858  -2.380  1.00  0.00     0.211 HD
ENDBRANCH  11  17
ENDBRANCH  10  11
ENDBRANCH   1  10
TORSDOF 9
