REMARK  3 active torsions:
REMARK  status: ('A' for Active; 'I' for Inactive)
REMARK    1  A    between atoms: C_1  and  O_2 
REMARK    2  A    between atoms: C_3  and  C_8 
REMARK    3  A    between atoms: C_4  and  C_12 
ROOT
HETATM    1  C   UNL     1       1.252  -0.757   0.012  1.00  0.00     0.079 A 
HETATM    2  C   UNL     1       0.046  -1.490   0.131  1.00  0.00    -0.017 A 
HETATM    3  C   UNL     1       1.295   0.648  -0.161  1.00  0.00    -0.017 A 
HETATM    4  C   UNL     1       0.053   1.315  -0.211  1.00  0.00     0.011 A 
HETATM    5  C   UNL     1      -1.152  -0.750   0.045  1.00  0.00     0.011 A 
HETATM    6  C   UNL     1      -1.152   0.630  -0.118  1.00  0.00     0.001 A 
ENDROOT
BRANCH   2   7
HETATM    7  C   UNL     1      -0.072  -3.024   0.327  1.00  0.00    -0.021 C 
HETATM    8  C   UNL     1      -0.969  -3.334   1.553  1.00  0.00     0.019 C 
HETATM    9  C   UNL     1      -0.724  -3.631  -0.938  1.00  0.00     0.019 C 
HETATM   10  C   UNL     1       1.241  -3.801   0.567  1.00  0.00     0.019 C 
ENDBRANCH   2   7
BRANCH   1  11
HETATM   11  O   UNL     1       2.432  -1.438   0.041  1.00  0.00    -0.360 OA
HETATM   12  H   UNL     1       2.558  -1.766  -0.866  1.00  0.00     0.217 HD
ENDBRANCH   1  11
BRANCH   3  13
HETATM   13  C   UNL     1       2.576   1.509  -0.301  1.00  0.00    -0.021 C 
HETATM   14  C   UNL     1       2.517   2.304  -1.630  1.00  0.00     0.019 C 
HETATM   15  C   UNL     1       2.647   2.508   0.879  1.00  0.00     0.019 C 
HETATM   16  C   UNL     1       3.926   0.758  -0.317  1.00  0.00     0.019 C 
ENDBRANCH   3  13
TORSDOF 3
