REMARK  1 active torsions:
REMARK  status: ('A' for Active; 'I' for Inactive)
REMARK    1  A    between atoms: C_1  and  N_2 
ROOT
HETATM    1  C   UNL     1       1.082   0.031   0.050  1.00  0.00     0.166 C 
HETATM    2  S   UNL     1       0.194   0.797  -1.204  1.00  0.00    -0.048 SA
HETATM    3  S   UNL     1       0.177  -0.729   1.295  1.00  0.00    -0.048 SA
ENDROOT
BRANCH   1   4
HETATM    4  N   UNL     1       2.444   0.027   0.057  1.00  0.00    -0.372 N 
HETATM    5  C   UNL     1       3.238  -0.610   1.100  1.00  0.00     0.150 C 
HETATM    6  C   UNL     1       3.252   0.659  -0.978  1.00  0.00     0.150 C 
ENDBRANCH   1   4
TORSDOF 1
