REMARK  13 active torsions:
REMARK  status: ('A' for Active; 'I' for Inactive)
REMARK    1  A    between atoms: C_2  and  C_3 
REMARK    2  A    between atoms: C_3  and  C_4 
REMARK    3  A    between atoms: C_4  and  C_5 
REMARK    4  A    between atoms: C_5  and  C_6 
REMARK    5  A    between atoms: C_6  and  C_7 
REMARK    6  A    between atoms: C_7  and  C_8 
REMARK    7  A    between atoms: C_8  and  C_9 
REMARK    8  A    between atoms: C_9  and  C_10 
REMARK    9  A    between atoms: C_10  and  C_11 
REMARK   10  A    between atoms: C_11  and  C_12 
REMARK   11  A    between atoms: C_12  and  C_13 
REMARK   12  A    between atoms: C_13  and  C_14 
REMARK   13  A    between atoms: C_14  and  C_15 
ROOT
HETATM    1  C   UNL     1       8.582  -2.755   3.236  1.00  0.00     0.000 C 
ENDROOT
BRANCH   1   2
HETATM    2  C   UNL     1       7.053  -2.739   3.217  1.00  0.00     0.000 C 
BRANCH   2   3
HETATM    3  C   UNL     1       6.520  -1.832   2.106  1.00  0.00     0.000 C 
BRANCH   3   4
HETATM    4  C   UNL     1       4.990  -1.817   2.088  1.00  0.00     0.000 C 
BRANCH   4   5
HETATM    5  C   UNL     1       4.455  -0.910   0.978  1.00  0.00     0.000 C 
BRANCH   5   6
HETATM    6  C   UNL     1       2.926  -0.897   0.961  1.00  0.00    -0.000 C 
BRANCH   6   7
HETATM    7  C   UNL     1       2.390   0.009  -0.147  1.00  0.00    -0.005 C 
HETATM    8  C   UNL     1       0.870   0.025  -0.167  1.00  0.00     0.005 C 
ENDBRANCH   6   7
ENDBRANCH   5   6
ENDBRANCH   4   5
ENDBRANCH   3   4
ENDBRANCH   2   3
ENDBRANCH   1   2
BRANCH   1   9
HETATM    9  C   UNL     1       9.115  -3.662   4.346  1.00  0.00     0.000 C 
BRANCH   9  10
HETATM   10  C   UNL     1      10.644  -3.677   4.366  1.00  0.00     0.000 C 
BRANCH  10  11
HETATM   11  C   UNL     1      11.177  -4.584   5.476  1.00  0.00     0.000 C 
BRANCH  11  12
HETATM   12  C   UNL     1      12.706  -4.599   5.494  1.00  0.00     0.000 C 
BRANCH  12  13
HETATM   13  C   UNL     1      13.241  -5.505   6.604  1.00  0.00     0.000 C 
BRANCH  13  14
HETATM   14  C   UNL     1      14.771  -5.519   6.621  1.00  0.00    -0.000 C 
BRANCH  14  15
HETATM   15  C   UNL     1      15.307  -6.425   7.730  1.00  0.00    -0.005 C 
HETATM   16  C   UNL     1      16.827  -6.440   7.749  1.00  0.00     0.005 C 
ENDBRANCH  14  15
ENDBRANCH  13  14
ENDBRANCH  12  13
ENDBRANCH  11  12
ENDBRANCH  10  11
ENDBRANCH   9  10
ENDBRANCH   1   9
TORSDOF 13
