REMARK  0 active torsions:
REMARK  status: ('A' for Active; 'I' for Inactive)
ROOT
HETATM    1  C   UNL     1       1.001  -0.009   0.107  1.00  0.00     0.179 C 
HETATM    2  C   UNL     1       2.989  -0.672   0.858  1.00  0.00     0.157 C 
HETATM    3  N   UNL     1       2.464   0.023   0.071  1.00  0.00    -0.280 NA
HETATM    4  S   UNL     1       3.715  -1.611   1.919  1.00  0.00    -0.055 SA
ENDROOT
TORSDOF 0
