REMARK  1 active torsions:
REMARK  status: ('A' for Active; 'I' for Inactive)
REMARK    1  A    between atoms: C_6  and  C_12 
ROOT
HETATM    1  N   UNL     1      -1.419  -0.038   0.118  1.00  0.00    -0.273 NA
HETATM    2  C   UNL     1      -0.755   1.132   0.040  1.00  0.00     0.117 A 
HETATM    3  C   UNL     1      -0.670  -1.159   0.084  1.00  0.00     0.117 A 
HETATM    4  C   UNL     1       0.712  -1.160  -0.026  1.00  0.00     0.031 A 
HETATM    5  C   UNL     1       0.623   1.232  -0.071  1.00  0.00     0.031 A 
HETATM    6  C   UNL     1       1.392   0.062  -0.106  1.00  0.00    -0.023 A 
ENDROOT
BRANCH   6   7
HETATM    7  C   UNL     1       2.859   0.113  -0.225  1.00  0.00    -0.023 A 
HETATM    8  C   UNL     1       3.538  -0.662  -1.173  1.00  0.00     0.031 A 
HETATM    9  C   UNL     1       4.921  -0.581  -1.247  1.00  0.00     0.117 A 
HETATM   10  N   UNL     1       5.670   0.209  -0.452  1.00  0.00    -0.273 NA
HETATM   11  C   UNL     1       5.006   0.950   0.458  1.00  0.00     0.117 A 
HETATM   12  C   UNL     1       3.627   0.938   0.606  1.00  0.00     0.031 A 
ENDBRANCH   6   7
TORSDOF 1
