REMARK  3 active torsions:
REMARK  status: ('A' for Active; 'I' for Inactive)
REMARK    1  A    between atoms: C_1  and  N_7 
REMARK    2  A    between atoms: C_2  and  C_10 
REMARK    3  A    between atoms: C_6  and  C_8 
ROOT
HETATM    1  C   UNL     1       1.340  -0.775   0.186  1.00  0.00     0.018 A 
HETATM    2  C   UNL     1       0.111  -1.489   0.140  1.00  0.00    -0.037 A 
HETATM    3  C   UNL     1      -1.082  -0.774  -0.120  1.00  0.00     0.009 A 
HETATM    4  C   UNL     1      -1.086   0.595  -0.322  1.00  0.00     0.001 A 
HETATM    5  C   UNL     1       0.115   1.288  -0.281  1.00  0.00     0.009 A 
HETATM    6  C   UNL     1       1.341   0.630  -0.039  1.00  0.00    -0.037 A 
ENDROOT
BRANCH   1   7
HETATM    7  N   UNL     1       2.502  -1.419   0.636  1.00  0.00    -0.302 NA
HETATM    8  H   UNL     1       2.639  -2.327   0.215  1.00  0.00     0.124 HD
HETATM    9  H   UNL     1       3.353  -0.884   0.574  1.00  0.00     0.124 HD
ENDBRANCH   1   7
BRANCH   2  10
HETATM   10  C   UNL     1      -0.129  -2.966   0.424  1.00  0.00     0.036 C 
HETATM   11  C   UNL     1       1.001  -3.980   0.485  1.00  0.00     0.010 C 
ENDBRANCH   2  10
BRANCH   6  12
HETATM   12  C   UNL     1       2.553   1.553   0.008  1.00  0.00     0.036 C 
HETATM   13  C   UNL     1       3.875   1.084  -0.591  1.00  0.00     0.010 C 
ENDBRANCH   6  12
TORSDOF 3
