REMARK  2 active torsions:
REMARK  status: ('A' for Active; 'I' for Inactive)
REMARK    1  A    between atoms: C_5  and  N_11 
REMARK    2  A    between atoms: C_6  and  N_8 
ROOT
HETATM    1  C   UNL     1       0.040  -1.409   0.150  1.00  0.00    -0.026 A 
HETATM    2  C   UNL     1      -1.163  -0.692   0.022  1.00  0.00     0.009 A 
HETATM    3  C   UNL     1      -1.163   0.696  -0.155  1.00  0.00     0.003 A 
HETATM    4  C   UNL     1       0.041   1.397  -0.220  1.00  0.00     0.039 A 
HETATM    5  C   UNL     1       1.247   0.695  -0.112  1.00  0.00     0.136 A 
HETATM    6  C   UNL     1       1.250  -0.691   0.068  1.00  0.00     0.141 A 
HETATM    7  C   UNL     1      -0.012  -2.899   0.355  1.00  0.00     0.050 C 
ENDROOT
BRANCH   5   8
HETATM    8  N   UNL     1       2.483   1.444  -0.238  1.00  0.00    -0.113 N 
HETATM    9  O   UNL     1       2.592   2.469   0.446  1.00  0.00    -0.532 OA
HETATM   10  O   UNL     1       3.307   1.031  -1.061  1.00  0.00    -0.532 OA
ENDBRANCH   5   8
BRANCH   6  11
HETATM   11  N   UNL     1       2.509  -1.385   0.251  1.00  0.00    -0.113 N 
HETATM   12  O   UNL     1       3.164  -1.085   1.256  1.00  0.00    -0.532 OA
HETATM   13  O   UNL     1       2.808  -2.245  -0.586  1.00  0.00    -0.532 OA
ENDBRANCH   6  11
TORSDOF 2
