REMARK  5 active torsions:
REMARK  status: ('A' for Active; 'I' for Inactive)
REMARK    1  A    between atoms: C_1  and  O_3 
REMARK    2  A    between atoms: O_3  and  C_5 
REMARK    3  A    between atoms: C_5  and  C_6 
REMARK    4  A    between atoms: C_6  and  C_7 
REMARK    5  A    between atoms: C_7  and  C_8 
ROOT
HETATM    1  C   UNL     1      -1.056   1.109  -0.001  1.00  0.00     0.178 C 
ENDROOT
BRANCH   1   2
HETATM    2  O   UNL     1       0.378   1.138   0.001  1.00  0.00    -0.322 OA
BRANCH   2   3
HETATM    3  C   UNL     1       0.953  -0.093  -0.082  1.00  0.00     0.254 C 
HETATM    4  O   UNL     1       0.352  -1.156  -0.154  1.00  0.00    -0.266 OA
HETATM    5  C   UNL     1       2.445   0.034  -0.073  1.00  0.00     0.126 C 
ENDBRANCH   2   3
ENDBRANCH   1   2
BRANCH   1   6
HETATM    6  C   UNL     1      -1.567   2.543   0.096  1.00  0.00     0.027 C 
BRANCH   6   7
HETATM    7  C   UNL     1      -3.094   2.587   0.099  1.00  0.00     0.002 C 
BRANCH   7   8
HETATM    8  C   UNL     1      -3.616   4.020   0.196  1.00  0.00    -0.004 C 
HETATM    9  C   UNL     1      -5.136   4.055   0.198  1.00  0.00     0.005 C 
ENDBRANCH   7   8
ENDBRANCH   6   7
ENDBRANCH   1   6
TORSDOF 5
