REMARK  12 active torsions:
REMARK  status: ('A' for Active; 'I' for Inactive)
REMARK    1  A    between atoms: C_2  and  C_3 
REMARK    2  A    between atoms: C_3  and  C_4 
REMARK    3  A    between atoms: C_4  and  C_5 
REMARK    4  A    between atoms: C_5  and  C_6 
REMARK    5  A    between atoms: C_6  and  C_7 
REMARK    6  A    between atoms: C_7  and  C_8 
REMARK    7  A    between atoms: C_8  and  C_9 
REMARK    8  A    between atoms: C_9  and  C_10 
REMARK    9  A    between atoms: C_10  and  C_11 
REMARK   10  A    between atoms: C_11  and  C_12 
REMARK   11  A    between atoms: C_12  and  C_13 
REMARK   12  A    between atoms: C_13  and  C_14 
ROOT
HETATM    1  C   UNL     1       8.546   2.686   3.465  1.00  0.00     0.000 C 
ENDROOT
BRANCH   1   2
HETATM    2  C   UNL     1       7.016   2.671   3.445  1.00  0.00     0.000 C 
BRANCH   2   3
HETATM    3  C   UNL     1       6.482   1.798   2.309  1.00  0.00     0.000 C 
BRANCH   3   4
HETATM    4  C   UNL     1       4.953   1.784   2.292  1.00  0.00     0.000 C 
BRANCH   4   5
HETATM    5  C   UNL     1       4.417   0.911   1.156  1.00  0.00     0.000 C 
BRANCH   5   6
HETATM    6  C   UNL     1       2.887   0.899   1.139  1.00  0.00    -0.000 C 
BRANCH   6   7
HETATM    7  C   UNL     1       2.350   0.027   0.005  1.00  0.00    -0.005 C 
HETATM    8  C   UNL     1       0.830   0.012  -0.015  1.00  0.00     0.005 C 
ENDBRANCH   6   7
ENDBRANCH   5   6
ENDBRANCH   4   5
ENDBRANCH   3   4
ENDBRANCH   2   3
ENDBRANCH   1   2
BRANCH   1   9
HETATM    9  C   UNL     1       9.078   3.560   4.601  1.00  0.00     0.000 C 
BRANCH   9  10
HETATM   10  C   UNL     1      10.608   3.576   4.622  1.00  0.00     0.000 C 
BRANCH  10  11
HETATM   11  C   UNL     1      11.139   4.450   5.760  1.00  0.00     0.000 C 
BRANCH  11  12
HETATM   12  C   UNL     1      12.668   4.467   5.782  1.00  0.00     0.000 C 
BRANCH  12  13
HETATM   13  C   UNL     1      13.197   5.342   6.919  1.00  0.00    -0.000 C 
BRANCH  13  14
HETATM   14  C   UNL     1      14.725   5.360   6.942  1.00  0.00    -0.005 C 
HETATM   15  C   UNL     1      15.255   6.228   8.072  1.00  0.00     0.005 C 
ENDBRANCH  13  14
ENDBRANCH  12  13
ENDBRANCH  11  12
ENDBRANCH  10  11
ENDBRANCH   9  10
ENDBRANCH   1   9
TORSDOF 12
