REMARK  14 active torsions:
REMARK  status: ('A' for Active; 'I' for Inactive)
REMARK    1  A    between atoms: C_1  and  C_2 
REMARK    2  A    between atoms: C_1  and  O_16 
REMARK    3  A    between atoms: C_2  and  C_3 
REMARK    4  A    between atoms: C_3  and  C_4 
REMARK    5  A    between atoms: C_4  and  C_5 
REMARK    6  A    between atoms: C_5  and  C_6 
REMARK    7  A    between atoms: C_6  and  C_7 
REMARK    8  A    between atoms: C_7  and  C_8 
REMARK    9  A    between atoms: C_8  and  C_9 
REMARK   10  A    between atoms: C_9  and  C_10 
REMARK   11  A    between atoms: C_10  and  C_11 
REMARK   12  A    between atoms: C_11  and  C_12 
REMARK   13  A    between atoms: C_12  and  C_13 
REMARK   14  A    between atoms: C_13  and  C_14 
ROOT
HETATM    1  C   UNL     1      -5.008  -0.053   4.374  1.00  0.00     0.000 C 
ENDROOT
BRANCH   1   2
HETATM    2  C   UNL     1      -3.479  -0.053   4.347  1.00  0.00     0.000 C 
BRANCH   2   3
HETATM    3  C   UNL     1      -2.949  -0.023   2.913  1.00  0.00     0.000 C 
BRANCH   3   4
HETATM    4  C   UNL     1      -1.419  -0.021   2.885  1.00  0.00     0.000 C 
BRANCH   4   5
HETATM    5  C   UNL     1      -0.890   0.009   1.451  1.00  0.00     0.002 C 
BRANCH   5   6
HETATM    6  C   UNL     1       0.637   0.014   1.422  1.00  0.00     0.026 C 
BRANCH   6   7
HETATM    7  C   UNL     1       1.171   0.046  -0.004  1.00  0.00     0.164 C 
BRANCH   7   8
HETATM    8  O   UNL     1       2.592   0.033   0.013  1.00  0.00    -0.401 OA
HETATM    9  H   UNL     1       2.886   0.822   0.500  1.00  0.00     0.209 HD
ENDBRANCH   7   8
ENDBRANCH   6   7
ENDBRANCH   5   6
ENDBRANCH   4   5
ENDBRANCH   3   4
ENDBRANCH   2   3
ENDBRANCH   1   2
BRANCH   1  10
HETATM   10  C   UNL     1      -5.540  -0.083   5.808  1.00  0.00     0.000 C 
BRANCH  10  11
HETATM   11  C   UNL     1      -7.069  -0.083   5.832  1.00  0.00     0.000 C 
BRANCH  11  12
HETATM   12  C   UNL     1      -7.603  -0.113   7.265  1.00  0.00     0.000 C 
BRANCH  12  13
HETATM   13  C   UNL     1      -9.133  -0.113   7.287  1.00  0.00     0.000 C 
BRANCH  13  14
HETATM   14  C   UNL     1      -9.669  -0.143   8.719  1.00  0.00     0.000 C 
BRANCH  14  15
HETATM   15  C   UNL     1     -11.198  -0.144   8.740  1.00  0.00    -0.000 C 
BRANCH  15  16
HETATM   16  C   UNL     1     -11.735  -0.174  10.171  1.00  0.00    -0.005 C 
HETATM   17  C   UNL     1     -13.255  -0.174  10.195  1.00  0.00     0.005 C 
ENDBRANCH  15  16
ENDBRANCH  14  15
ENDBRANCH  13  14
ENDBRANCH  12  13
ENDBRANCH  11  12
ENDBRANCH  10  11
ENDBRANCH   1  10
TORSDOF 14
