REMARK  1 active torsions:
REMARK  status: ('A' for Active; 'I' for Inactive)
REMARK    1  A    between atoms: C_4  and  N_8 
ROOT
HETATM    1  C   UNL     1      -1.440  -0.077   0.021  1.00  0.00     0.172 A 
HETATM    2  C   UNL     1      -0.761   1.157  -0.010  1.00  0.00     0.057 A 
HETATM    3  C   UNL     1       0.634   1.261  -0.060  1.00  0.00     0.040 A 
HETATM    4  C   UNL     1       1.399   0.096  -0.081  1.00  0.00     0.103 A 
HETATM    5  C   UNL     1       0.781  -1.153  -0.051  1.00  0.00     0.040 A 
HETATM    6  C   UNL     1      -0.616  -1.218  -0.002  1.00  0.00     0.057 A 
HETATM    7  O   UNL     1      -2.710  -0.154   0.066  1.00  0.00    -0.289 OA
ENDROOT
BRANCH   4   8
HETATM    8  N   UNL     1       2.859   0.185  -0.134  1.00  0.00    -0.116 N 
HETATM    9  O   UNL     1       3.375   1.313  -0.198  1.00  0.00    -0.532 OA
HETATM   10  O   UNL     1       3.511  -0.872  -0.112  1.00  0.00    -0.532 OA
ENDBRANCH   4   8
TORSDOF 1
