REMARK  22 active torsions:
REMARK  status: ('A' for Active; 'I' for Inactive)
REMARK    1  A    between atoms: C_1  and  C_8 
REMARK    2  A    between atoms: C_3  and  O_7 
REMARK    3  A    between atoms: C_5  and  O_6 
REMARK    4  A    between atoms: C_8  and  C_10 
REMARK    5  A    between atoms: C_8  and  O_9 
REMARK    6  A    between atoms: C_10  and  O_11 
REMARK    7  A    between atoms: O_11  and  C_12 
REMARK    8  A    between atoms: C_12  and  C_13 
REMARK    9  A    between atoms: C_13  and  C_15 
REMARK   10  A    between atoms: C_15  and  C_16 
REMARK   11  A    between atoms: C_16  and  C_17 
REMARK   12  A    between atoms: C_17  and  C_18 
REMARK   13  A    between atoms: C_18  and  C_19 
REMARK   14  A    between atoms: C_19  and  C_20 
REMARK   15  A    between atoms: C_20  and  C_21 
REMARK   16  A    between atoms: C_22  and  C_23 
REMARK   17  A    between atoms: C_23  and  C_24 
REMARK   18  A    between atoms: C_24  and  C_25 
REMARK   19  A    between atoms: C_25  and  C_26 
REMARK   20  A    between atoms: C_26  and  C_27 
REMARK   21  A    between atoms: C_27  and  C_28 
REMARK   22  A    between atoms: C_28  and  C_29 
ROOT
HETATM    1  C   UNL     1      -5.539  -1.445  -1.753  1.00  0.00     0.111 C 
ENDROOT
BRANCH   1   2
HETATM    2  C   UNL     1      -4.548  -0.691  -0.867  1.00  0.00     0.258 C 
HETATM    3  O   UNL     1      -4.845  -0.275   0.249  1.00  0.00    -0.265 OA
BRANCH   2   4
HETATM    4  O   UNL     1      -3.367  -0.317  -1.429  1.00  0.00    -0.319 OA
BRANCH   4   5
HETATM    5  C   UNL     1      -2.393  -1.347  -1.633  1.00  0.00     0.213 C 
BRANCH   5   6
HETATM    6  C   UNL     1      -0.954  -0.914  -1.370  1.00  0.00     0.174 C 
BRANCH   6   7
HETATM    7  C   UNL     1      -0.656  -0.625   0.112  1.00  0.00     0.183 C 
HETATM    8  O   UNL     1       0.758  -0.907   0.325  1.00  0.00    -0.378 OA
HETATM    9  C   UNL     1       1.463   0.344   0.426  1.00  0.00     0.202 C 
HETATM   10  C   UNL     1       0.465   1.455   0.158  1.00  0.00     0.173 C 
HETATM   11  C   UNL     1      -0.853   0.818   0.568  1.00  0.00     0.180 C 
BRANCH  10  12
HETATM   12  O   UNL     1       0.743   2.631   0.904  1.00  0.00    -0.391 OA
HETATM   13  H   UNL     1      -0.043   3.202   0.799  1.00  0.00     0.210 HD
ENDBRANCH  10  12
BRANCH  11  14
HETATM   14  O   UNL     1      -1.934   1.531  -0.006  1.00  0.00    -0.390 OA
HETATM   15  H   UNL     1      -2.766   1.065   0.214  1.00  0.00     0.210 HD
ENDBRANCH  11  14
ENDBRANCH   6   7
BRANCH   6  16
HETATM   16  O   UNL     1      -0.128  -2.016  -1.804  1.00  0.00    -0.391 OA
HETATM   17  H   UNL     1       0.671  -1.986  -1.237  1.00  0.00     0.210 HD
ENDBRANCH   6  16
ENDBRANCH   5   6
ENDBRANCH   4   5
ENDBRANCH   2   4
ENDBRANCH   1   2
BRANCH   1  18
HETATM   18  C   UNL     1      -4.890  -2.302  -2.820  1.00  0.00     0.010 C 
BRANCH  18  19
HETATM   19  C   UNL     1      -5.786  -3.186  -3.676  1.00  0.00     0.000 C 
BRANCH  19  20
HETATM   20  C   UNL     1      -4.842  -3.990  -4.579  1.00  0.00     0.000 C 
BRANCH  20  21
HETATM   21  C   UNL     1      -5.552  -4.916  -5.547  1.00  0.00     0.000 C 
BRANCH  21  22
HETATM   22  C   UNL     1      -4.514  -5.665  -6.390  1.00  0.00     0.004 C 
BRANCH  22  23
HETATM   23  C   UNL     1      -5.212  -6.585  -7.378  1.00  0.00     0.027 C 
BRANCH  23  24
HETATM   24  C   UNL     1      -4.264  -7.359  -8.251  1.00  0.00    -0.031 C 
HETATM   25  C   UNL     1      -4.698  -8.219  -9.188  1.00  0.00    -0.031 C 
BRANCH  25  26
HETATM   26  C   UNL     1      -6.161  -8.463  -9.422  1.00  0.00     0.027 C 
BRANCH  26  27
HETATM   27  C   UNL     1      -6.457  -9.474 -10.524  1.00  0.00     0.004 C 
BRANCH  27  28
HETATM   28  C   UNL     1      -7.971  -9.631 -10.661  1.00  0.00     0.000 C 
BRANCH  28  29
HETATM   29  C   UNL     1      -8.341 -10.631 -11.749  1.00  0.00     0.000 C 
BRANCH  29  30
HETATM   30  C   UNL     1      -9.858 -10.766 -11.862  1.00  0.00     0.000 C 
BRANCH  30  31
HETATM   31  C   UNL     1     -10.238 -11.766 -12.950  1.00  0.00    -0.000 C 
BRANCH  31  32
HETATM   32  C   UNL     1     -11.753 -11.908 -13.070  1.00  0.00    -0.005 C 
HETATM   33  C   UNL     1     -12.125 -12.905 -14.155  1.00  0.00     0.005 C 
ENDBRANCH  31  32
ENDBRANCH  30  31
ENDBRANCH  29  30
ENDBRANCH  28  29
ENDBRANCH  27  28
ENDBRANCH  26  27
ENDBRANCH  25  26
ENDBRANCH  23  24
ENDBRANCH  22  23
ENDBRANCH  21  22
ENDBRANCH  20  21
ENDBRANCH  19  20
ENDBRANCH  18  19
ENDBRANCH   1  18
TORSDOF 22
