REMARK  11 active torsions:
REMARK  status: ('A' for Active; 'I' for Inactive)
REMARK    1  A    between atoms: C_1  and  C_3 
REMARK    2  A    between atoms: C_1  and  C_19 
REMARK    3  A    between atoms: C_4  and  O_9 
REMARK    4  A    between atoms: C_8  and  O_10 
REMARK    5  A    between atoms: O_10  and  C_11 
REMARK    6  A    between atoms: C_11  and  C_12 
REMARK    7  A    between atoms: C_12  and  C_13 
REMARK    8  A    between atoms: C_13  and  C_14 
REMARK    9  A    between atoms: C_14  and  C_15 
REMARK   10  A    between atoms: C_15  and  C_16 
REMARK   11  A    between atoms: C_16  and  C_17 
ROOT
HETATM    1  C   UNL     1       0.516   1.425  -0.026  1.00  0.00     0.048 A 
HETATM    2  C   UNL     1       1.062   2.624  -0.493  1.00  0.00     0.082 A 
HETATM    3  C   UNL     1      -0.849   1.419   0.314  1.00  0.00     0.021 A 
HETATM    4  C   UNL     1       0.308   3.803  -0.497  1.00  0.00     0.074 A 
HETATM    5  C   UNL     1      -1.622   2.586   0.240  1.00  0.00     0.038 A 
HETATM    6  C   UNL     1      -1.040   3.793  -0.139  1.00  0.00     0.071 A 
ENDROOT
BRANCH   6   7
HETATM    7  O   UNL     1      -1.878   4.878  -0.168  1.00  0.00    -0.351 OA
BRANCH   7   8
HETATM    8  C   UNL     1      -1.229   6.145  -0.276  1.00  0.00     0.175 C 
BRANCH   8   9
HETATM    9  C   UNL     1      -2.260   7.263  -0.405  1.00  0.00     0.027 C 
BRANCH   9  10
HETATM   10  C   UNL     1      -1.540   8.611  -0.437  1.00  0.00     0.002 C 
BRANCH  10  11
HETATM   11  C   UNL     1      -2.478   9.777  -0.732  1.00  0.00     0.000 C 
BRANCH  11  12
HETATM   12  C   UNL     1      -1.709  11.100  -0.698  1.00  0.00     0.000 C 
BRANCH  12  13
HETATM   13  C   UNL     1      -2.619  12.289  -0.996  1.00  0.00    -0.000 C 
BRANCH  13  14
HETATM   14  C   UNL     1      -1.849  13.607  -0.924  1.00  0.00    -0.005 C 
HETATM   15  C   UNL     1      -2.754  14.794  -1.208  1.00  0.00     0.005 C 
ENDBRANCH  13  14
ENDBRANCH  12  13
ENDBRANCH  11  12
ENDBRANCH  10  11
ENDBRANCH   9  10
ENDBRANCH   8   9
ENDBRANCH   7   8
ENDBRANCH   6   7
BRANCH   2  16
HETATM   16  O   UNL     1       2.312   2.771  -1.027  1.00  0.00    -0.360 OA
HETATM   17  H   UNL     1       2.578   1.940  -1.459  1.00  0.00     0.217 HD
ENDBRANCH   2  16
BRANCH   1  18
HETATM   18  C   UNL     1       1.243   0.125   0.111  1.00  0.00     0.195 C 
HETATM   19  O   UNL     1       0.587  -0.914   0.138  1.00  0.00    -0.287 OA
BRANCH  18  20
HETATM   20  C   UNL     1       2.725  -0.001   0.183  1.00  0.00     0.015 A 
HETATM   21  C   UNL     1       3.548   0.953   0.791  1.00  0.00     0.015 A 
HETATM   22  C   UNL     1       4.938   0.825   0.720  1.00  0.00     0.001 A 
HETATM   23  C   UNL     1       5.510  -0.284   0.097  1.00  0.00     0.000 A 
HETATM   24  C   UNL     1       4.694  -1.276  -0.443  1.00  0.00     0.001 A 
HETATM   25  C   UNL     1       3.307  -1.136  -0.400  1.00  0.00     0.015 A 
ENDBRANCH  18  20
ENDBRANCH   1  18
TORSDOF 11
