REMARK  2 active torsions:
REMARK  status: ('A' for Active; 'I' for Inactive)
REMARK    1  A    between atoms: C_1  and  N_7 
REMARK    2  A    between atoms: C_6  and  N_8 
ROOT
HETATM    1  C   UNL     1       0.019  -1.445   0.120  1.00  0.00     0.027 A 
HETATM    2  C   UNL     1      -1.185  -0.732   0.048  1.00  0.00     0.025 A 
HETATM    3  C   UNL     1      -1.191   0.659  -0.015  1.00  0.00     0.002 A 
HETATM    4  C   UNL     1       0.013   1.354  -0.068  1.00  0.00     0.009 A 
HETATM    5  C   UNL     1       1.238   0.666  -0.062  1.00  0.00    -0.039 A 
HETATM    6  C   UNL     1       1.250  -0.741   0.064  1.00  0.00     0.033 A 
HETATM    7  C   UNL     1       2.510   1.458  -0.201  1.00  0.00     0.050 C 
ENDROOT
BRANCH   1   8
HETATM    8  N   UNL     1      -0.035  -2.852   0.033  1.00  0.00    -0.301 NA
HETATM    9  H   UNL     1      -0.899  -3.245   0.388  1.00  0.00     0.124 HD
HETATM   10  H   UNL     1       0.781  -3.320   0.399  1.00  0.00     0.124 HD
ENDBRANCH   1   8
BRANCH   6  11
HETATM   11  N   UNL     1       2.466  -1.447  -0.080  1.00  0.00    -0.301 NA
HETATM   12  H   UNL     1       2.439  -2.387   0.286  1.00  0.00     0.124 HD
HETATM   13  H   UNL     1       3.278  -0.932   0.236  1.00  0.00     0.124 HD
ENDBRANCH   6  11
TORSDOF 2
