REMARK  1 active torsions:
REMARK  status: ('A' for Active; 'I' for Inactive)
REMARK    1  A    between atoms: C_4  and  C_8 
ROOT
HETATM    1  C   UNL     1      -1.424  -0.067   0.025  1.00  0.00     0.034 A 
HETATM    2  C   UNL     1      -0.784   1.166  -0.011  1.00  0.00     0.024 A 
HETATM    3  C   UNL     1       0.612   1.223  -0.070  1.00  0.00     0.013 A 
HETATM    4  C   UNL     1       1.404   0.050  -0.090  1.00  0.00    -0.004 A 
HETATM    5  C   UNL     1       0.722  -1.182  -0.057  1.00  0.00     0.013 A 
HETATM    6  C   UNL     1      -0.677  -1.239   0.001  1.00  0.00     0.024 A 
HETATM    7 CL   UNL     1      -3.140  -0.142   0.096  1.00  0.00    -0.084 Cl
ENDROOT
BRANCH   4   8
HETATM    8  C   UNL     1       2.930   0.167  -0.163  1.00  0.00     0.216 C 
HETATM    9 CL   UNL     1       3.395   0.976  -1.700  1.00  0.00    -0.078 Cl
HETATM   10 CL   UNL     1       3.535   1.153   1.215  1.00  0.00    -0.078 Cl
HETATM   11 CL   UNL     1       3.800  -1.401  -0.103  1.00  0.00    -0.078 Cl
ENDBRANCH   4   8
TORSDOF 1
