REMARK  4 active torsions:
REMARK  status: ('A' for Active; 'I' for Inactive)
REMARK    1  A    between atoms: C_2  and  N_7 
REMARK    2  A    between atoms: C_4  and  N_8 
REMARK    3  A    between atoms: N_7  and  C_10 
REMARK    4  A    between atoms: N_8  and  C_14 
ROOT
HETATM    1  N   UNL     1      -0.562   1.190   0.098  1.00  0.00    -0.031 NA
HETATM    2  C   UNL     1      -1.248   0.068   0.005  1.00  0.00     0.728 A 
HETATM    3  N   UNL     1      -0.685  -1.131  -0.132  1.00  0.00    -0.031 NA
HETATM    4  C   UNL     1       0.645  -1.174  -0.135  1.00  0.00     0.222 A 
HETATM    5  N   UNL     1       1.421  -0.113  -0.022  1.00  0.00    -0.186 NA
HETATM    6  C   UNL     1       0.747   1.020   0.067  1.00  0.00     0.244 A 
HETATM    7 CL   UNL     1       1.687   2.446   0.145  1.00  0.00    -0.041 Cl
ENDROOT
BRANCH   2   8
HETATM    8  N   UNL     1      -2.619   0.083   0.066  1.00  0.00    -0.214 N 
HETATM    9  H   UNL     1      -3.005  -0.803  -0.235  1.00  0.00     0.178 HD
BRANCH   8  10
HETATM   10  C   UNL     1      -3.466   1.274   0.009  1.00  0.00     0.036 C 
HETATM   11  C   UNL     1      -3.267   2.142   1.261  1.00  0.00     0.038 C 
HETATM   12  C   UNL     1      -3.227   2.090  -1.270  1.00  0.00     0.038 C 
HETATM   13  C   UNL     1      -4.931   0.791  -0.002  1.00  0.00     0.038 C 
ENDBRANCH   8  10
ENDBRANCH   2   8
BRANCH   4  14
HETATM   14  N   UNL     1       1.326  -2.370  -0.271  1.00  0.00    -0.261 NA
HETATM   15  H   UNL     1       2.248  -2.259   0.134  1.00  0.00     0.130 HD
BRANCH  14  16
HETATM   16  C   UNL     1       0.621  -3.603   0.007  1.00  0.00     0.091 C 
HETATM   17  C   UNL     1       1.618  -4.754   0.004  1.00  0.00     0.021 C 
ENDBRANCH  14  16
ENDBRANCH   4  14
TORSDOF 4
