REMARK  16 active torsions:
REMARK  status: ('A' for Active; 'I' for Inactive)
REMARK    1  A    between atoms: C_1  and  C_7 
REMARK    2  A    between atoms: C_4  and  C_10 
REMARK    3  A    between atoms: C_7  and  O_9 
REMARK    4  A    between atoms: O_9  and  C_13 
REMARK    5  A    between atoms: C_10  and  O_12 
REMARK    6  A    between atoms: O_12  and  C_21 
REMARK    7  A    between atoms: C_13  and  C_14 
REMARK    8  A    between atoms: C_14  and  C_15 
REMARK    9  A    between atoms: C_14  and  C_19 
REMARK   10  A    between atoms: C_15  and  C_16 
REMARK   11  A    between atoms: C_16  and  C_17 
REMARK   12  A    between atoms: C_21  and  C_22 
REMARK   13  A    between atoms: C_22  and  C_23 
REMARK   14  A    between atoms: C_22  and  C_27 
REMARK   15  A    between atoms: C_23  and  C_24 
REMARK   16  A    between atoms: C_24  and  C_25 
ROOT
HETATM    1  C   UNL     1      -1.411  -0.097   0.147  1.00  0.00     0.039 A 
HETATM    2  C   UNL     1      -0.792   1.160   0.173  1.00  0.00     0.018 A 
HETATM    3  C   UNL     1       0.604   1.265   0.158  1.00  0.00     0.018 A 
HETATM    4  C   UNL     1       1.403   0.114   0.144  1.00  0.00     0.039 A 
HETATM    5  C   UNL     1       0.784  -1.143   0.169  1.00  0.00     0.018 A 
HETATM    6  C   UNL     1      -0.612  -1.247   0.158  1.00  0.00     0.018 A 
ENDROOT
BRANCH   1   7
HETATM    7  C   UNL     1      -2.889  -0.265   0.039  1.00  0.00     0.293 C 
HETATM    8  O   UNL     1      -3.429  -1.348  -0.132  1.00  0.00    -0.259 OA
BRANCH   7   9
HETATM    9  O   UNL     1      -3.519   0.934   0.096  1.00  0.00    -0.317 OA
BRANCH   9  10
HETATM   10  C   UNL     1      -4.911   0.894  -0.252  1.00  0.00     0.183 C 
BRANCH  10  11
HETATM   11  C   UNL     1      -5.485   2.325  -0.354  1.00  0.00     0.010 C 
BRANCH  11  12
HETATM   12  C   UNL     1      -4.911   3.137  -1.545  1.00  0.00     0.007 C 
BRANCH  12  13
HETATM   13  C   UNL     1      -3.390   3.293  -1.530  1.00  0.00     0.000 C 
BRANCH  13  14
HETATM   14  C   UNL     1      -2.882   4.284  -2.576  1.00  0.00    -0.005 C 
HETATM   15  C   UNL     1      -1.365   4.396  -2.512  1.00  0.00     0.005 C 
ENDBRANCH  13  14
ENDBRANCH  12  13
ENDBRANCH  11  12
BRANCH  11  16
HETATM   16  C   UNL     1      -7.026   2.227  -0.444  1.00  0.00     0.002 C 
HETATM   17  C   UNL     1      -7.745   3.567  -0.373  1.00  0.00     0.005 C 
ENDBRANCH  11  16
ENDBRANCH  10  11
ENDBRANCH   9  10
ENDBRANCH   7   9
ENDBRANCH   1   7
BRANCH   4  18
HETATM   18  C   UNL     1       2.880   0.284   0.033  1.00  0.00     0.293 C 
HETATM   19  O   UNL     1       3.418   1.368  -0.138  1.00  0.00    -0.259 OA
BRANCH  18  20
HETATM   20  O   UNL     1       3.512  -0.914   0.087  1.00  0.00    -0.317 OA
BRANCH  20  21
HETATM   21  C   UNL     1       4.903  -0.869  -0.264  1.00  0.00     0.183 C 
BRANCH  21  22
HETATM   22  C   UNL     1       5.483  -2.298  -0.367  1.00  0.00     0.010 C 
BRANCH  22  23
HETATM   23  C   UNL     1       4.908  -3.115  -1.554  1.00  0.00     0.007 C 
BRANCH  23  24
HETATM   24  C   UNL     1       3.388  -3.278  -1.532  1.00  0.00     0.000 C 
BRANCH  24  25
HETATM   25  C   UNL     1       2.881  -4.273  -2.574  1.00  0.00    -0.005 C 
HETATM   26  C   UNL     1       1.365  -4.394  -2.503  1.00  0.00     0.005 C 
ENDBRANCH  24  25
ENDBRANCH  23  24
ENDBRANCH  22  23
BRANCH  22  27
HETATM   27  C   UNL     1       7.023  -2.192  -0.464  1.00  0.00     0.002 C 
HETATM   28  C   UNL     1       7.750  -3.528  -0.395  1.00  0.00     0.005 C 
ENDBRANCH  22  27
ENDBRANCH  21  22
ENDBRANCH  20  21
ENDBRANCH  18  20
ENDBRANCH   4  18
TORSDOF 16
