REMARK  9 active torsions:
REMARK  status: ('A' for Active; 'I' for Inactive)
REMARK    1  A    between atoms: C_1  and  O_3 
REMARK    2  A    between atoms: C_1  and  C_4 
REMARK    3  A    between atoms: O_3  and  C_15 
REMARK    4  A    between atoms: C_7  and  O_9 
REMARK    5  A    between atoms: C_7  and  C_10 
REMARK    6  A    between atoms: O_9  and  C_14 
REMARK    7  A    between atoms: C_13  and  C_15 
REMARK    8  A    between atoms: C_13  and  C_14 
REMARK    9  A    between atoms: C_14  and  C_16 
ROOT
HETATM    1  C   UNL     1      -1.639   2.594  -0.182  1.00  0.00     0.002 C 
HETATM    2  C   UNL     1      -1.229   3.382  -1.456  1.00  0.00     0.020 C 
HETATM    3  C   UNL     1      -3.179   2.509  -0.175  1.00  0.00     0.020 C 
ENDROOT
BRANCH   1   4
HETATM    4  C   UNL     1      -1.066   1.167  -0.350  1.00  0.00     0.190 C 
BRANCH   4   5
HETATM    5  O   UNL     1       0.358   1.177  -0.198  1.00  0.00    -0.320 OA
BRANCH   5   6
HETATM    6  C   UNL     1       0.933  -0.061  -0.195  1.00  0.00     0.262 C 
HETATM    7  O   UNL     1       0.312  -1.113  -0.250  1.00  0.00    -0.265 OA
BRANCH   6   8
HETATM    8  C   UNL     1       2.444   0.060  -0.086  1.00  0.00     0.077 C 
HETATM    9  C   UNL     1       3.088  -1.325  -0.025  1.00  0.00     0.020 C 
HETATM   10  C   UNL     1       3.003   0.851  -1.265  1.00  0.00     0.020 C 
ENDBRANCH   6   8
ENDBRANCH   5   6
ENDBRANCH   4   5
ENDBRANCH   1   4
BRANCH   1  11
HETATM   11  C   UNL     1      -1.111   3.349   1.097  1.00  0.00     0.145 C 
BRANCH  11  12
HETATM   12  O   UNL     1      -1.629   4.715   1.029  1.00  0.00    -0.315 OA
BRANCH  12  13
HETATM   13  C   UNL     1      -0.789   5.706   0.618  1.00  0.00     0.262 C 
HETATM   14  O   UNL     1       0.396   5.566   0.351  1.00  0.00    -0.265 OA
BRANCH  13  15
HETATM   15  C   UNL     1      -1.547   7.017   0.525  1.00  0.00     0.077 C 
HETATM   16  C   UNL     1      -1.211   7.876   1.736  1.00  0.00     0.020 C 
HETATM   17  C   UNL     1      -1.214   7.731  -0.781  1.00  0.00     0.020 C 
ENDBRANCH  13  15
ENDBRANCH  12  13
ENDBRANCH  11  12
BRANCH  11  18
HETATM   18  C   UNL     1      -1.548   2.818   2.502  1.00  0.00     0.008 C 
HETATM   19  C   UNL     1      -1.117   1.387   2.824  1.00  0.00     0.012 C 
HETATM   20  C   UNL     1      -1.007   3.731   3.619  1.00  0.00     0.012 C 
ENDBRANCH  11  18
ENDBRANCH   1  11
TORSDOF 9
