REMARK  6 active torsions:
REMARK  status: ('A' for Active; 'I' for Inactive)
REMARK    1  A    between atoms: O_1  and  C_4 
REMARK    2  A    between atoms: O_1  and  C_5 
REMARK    3  A    between atoms: O_2  and  C_6 
REMARK    4  A    between atoms: O_3  and  C_7 
REMARK    5  A    between atoms: C_4  and  C_7 
REMARK    6  A    between atoms: C_5  and  C_6 
ROOT
HETATM    1  O   UNL     1      -0.279  -0.076   0.235  1.00  0.00    -0.382 OA
ENDROOT
BRANCH   1   2
HETATM    2  C   UNL     1      -1.465   0.499  -0.311  1.00  0.00     0.141 C 
HETATM    3  C   UNL     1      -1.526   1.967   0.083  1.00  0.00     0.042 C 
BRANCH   2   4
HETATM    4  C   UNL     1      -2.663  -0.272   0.227  1.00  0.00     0.195 C 
BRANCH   4   5
HETATM    5  O   UNL     1      -2.538  -1.640  -0.147  1.00  0.00    -0.398 OA
HETATM    6  H   UNL     1      -1.693  -1.964   0.210  1.00  0.00     0.209 HD
ENDBRANCH   4   5
ENDBRANCH   2   4
ENDBRANCH   1   2
BRANCH   1   7
HETATM    7  C   UNL     1       0.883   0.578  -0.251  1.00  0.00     0.199 C 
BRANCH   7   8
HETATM    8  C   UNL     1       2.114  -0.091   0.348  1.00  0.00     0.138 C 
HETATM    9  C   UNL     1       2.203  -1.555  -0.054  1.00  0.00     0.041 C 
BRANCH   8  10
HETATM   10  O   UNL     1       3.272   0.591  -0.131  1.00  0.00    -0.394 OA
HETATM   11  H   UNL     1       4.049   0.167   0.273  1.00  0.00     0.210 HD
ENDBRANCH   8  10
ENDBRANCH   7   8
ENDBRANCH   1   7
TORSDOF 6
