REMARK  10 active torsions:
REMARK  status: ('A' for Active; 'I' for Inactive)
REMARK    1  A    between atoms: C_1  and  O_3 
REMARK    2  A    between atoms: C_1  and  C_5 
REMARK    3  A    between atoms: O_3  and  C_10 
REMARK    4  A    between atoms: C_10  and  C_12 
REMARK    5  A    between atoms: O_11  and  C_12 
REMARK    6  A    between atoms: O_11  and  C_13 
REMARK    7  A    between atoms: C_13  and  C_23 
REMARK    8  A    between atoms: O_14  and  C_15 
REMARK    9  A    between atoms: O_14  and  C_23 
REMARK   10  A    between atoms: C_15  and  C_17 
ROOT
HETATM    1  O   UNL     1       2.890  -1.774   1.301  1.00  0.00    -0.386 OA
ENDROOT
BRANCH   1   2
HETATM    2  C   UNL     1       1.672  -2.510   1.325  1.00  0.00     0.199 C 
BRANCH   2   3
HETATM    3  C   UNL     1       1.102  -2.606  -0.094  1.00  0.00     0.152 C 
HETATM    4  C   UNL     1      -0.106  -3.544  -0.095  1.00  0.00     0.042 C 
BRANCH   3   5
HETATM    5  O   UNL     1       0.591  -1.337  -0.583  1.00  0.00    -0.310 OA
BRANCH   5   6
HETATM    6  C   UNL     1       1.208  -0.238  -1.070  1.00  0.00     0.293 C 
HETATM    7  O   UNL     1       0.515   0.711  -1.438  1.00  0.00    -0.259 OA
BRANCH   6   8
HETATM    8  C   UNL     1       2.685  -0.071  -1.138  1.00  0.00     0.039 A 
HETATM    9  C   UNL     1       3.182   1.221  -0.887  1.00  0.00     0.017 A 
HETATM   10  C   UNL     1       4.553   1.487  -0.918  1.00  0.00     0.001 A 
HETATM   11  C   UNL     1       5.447   0.464  -1.215  1.00  0.00     0.000 A 
HETATM   12  C   UNL     1       4.965  -0.808  -1.521  1.00  0.00     0.001 A 
HETATM   13  C   UNL     1       3.588  -1.068  -1.512  1.00  0.00     0.017 A 
ENDBRANCH   6   8
ENDBRANCH   5   6
ENDBRANCH   3   5
ENDBRANCH   2   3
ENDBRANCH   1   2
BRANCH   1  14
HETATM   14  C   UNL     1       3.519  -1.707   2.580  1.00  0.00     0.199 C 
BRANCH  14  15
HETATM   15  C   UNL     1       4.395  -0.446   2.635  1.00  0.00     0.152 C 
HETATM   16  C   UNL     1       5.161  -0.331   3.944  1.00  0.00     0.042 C 
BRANCH  15  17
HETATM   17  O   UNL     1       3.711   0.806   2.369  1.00  0.00    -0.310 OA
BRANCH  17  18
HETATM   18  C   UNL     1       2.469   1.049   2.841  1.00  0.00     0.293 C 
HETATM   19  O   UNL     1       1.785   0.328   3.548  1.00  0.00    -0.259 OA
BRANCH  18  20
HETATM   20  C   UNL     1       2.005   2.359   2.327  1.00  0.00     0.039 A 
HETATM   21  C   UNL     1       0.656   2.513   1.987  1.00  0.00     0.017 A 
HETATM   22  C   UNL     1       0.195   3.738   1.502  1.00  0.00     0.001 A 
HETATM   23  C   UNL     1       1.075   4.813   1.369  1.00  0.00     0.000 A 
HETATM   24  C   UNL     1       2.420   4.665   1.711  1.00  0.00     0.001 A 
HETATM   25  C   UNL     1       2.888   3.439   2.188  1.00  0.00     0.017 A 
ENDBRANCH  18  20
ENDBRANCH  17  18
ENDBRANCH  15  17
ENDBRANCH  14  15
ENDBRANCH   1  14
TORSDOF 10
