REMARK  13 active torsions:
REMARK  status: ('A' for Active; 'I' for Inactive)
REMARK    1  A    between atoms: S_1  and  O_2 
REMARK    2  A    between atoms: S_1  and  C_17 
REMARK    3  A    between atoms: C_5  and  C_6 
REMARK    4  A    between atoms: C_5  and  C_7 
REMARK    5  A    between atoms: C_6  and  C_8 
REMARK    6  A    between atoms: C_7  and  C_9 
REMARK    7  A    between atoms: C_8  and  C_10 
REMARK    8  A    between atoms: C_9  and  C_11 
REMARK    9  A    between atoms: C_10  and  C_12 
REMARK   10  A    between atoms: C_11  and  C_13 
REMARK   11  A    between atoms: C_12  and  C_14 
REMARK   12  A    between atoms: C_13  and  C_15 
REMARK   13  A    between atoms: C_14  and  C_16 
ROOT
HETATM    1  C   UNL     1       2.802  -0.408   1.080  1.00  0.00     0.040 C 
ENDROOT
BRANCH   1   2
HETATM    2  C   UNL     1       1.579  -0.582   0.152  1.00  0.00     0.005 C 
BRANCH   2   3
HETATM    3  C   UNL     1       0.270  -0.217   0.881  1.00  0.00     0.000 C 
BRANCH   3   4
HETATM    4  C   UNL     1      -0.943  -0.300  -0.070  1.00  0.00     0.000 C 
BRANCH   4   5
HETATM    5  C   UNL     1      -2.261  -0.019   0.682  1.00  0.00     0.000 C 
BRANCH   5   6
HETATM    6  C   UNL     1      -3.476  -0.113  -0.264  1.00  0.00     0.000 C 
BRANCH   6   7
HETATM    7  C   UNL     1      -4.799   0.087   0.505  1.00  0.00     0.000 C 
BRANCH   7   8
HETATM    8  C   UNL     1      -6.018  -0.066  -0.428  1.00  0.00     0.000 C 
BRANCH   8   9
HETATM    9  C   UNL     1      -7.341   0.100   0.349  1.00  0.00     0.000 C 
BRANCH   9  10
HETATM   10  C   UNL     1      -8.561  -0.098  -0.575  1.00  0.00    -0.000 C 
BRANCH  10  11
HETATM   11  C   UNL     1      -9.884   0.070   0.202  1.00  0.00    -0.005 C 
HETATM   12  C   UNL     1     -11.103  -0.142  -0.715  1.00  0.00     0.005 C 
ENDBRANCH  10  11
ENDBRANCH   9  10
ENDBRANCH   8   9
ENDBRANCH   7   8
ENDBRANCH   6   7
ENDBRANCH   5   6
ENDBRANCH   4   5
ENDBRANCH   3   4
ENDBRANCH   2   3
ENDBRANCH   1   2
BRANCH   1  13
HETATM   13  C   UNL     1       4.116  -0.730   0.370  1.00  0.00    -0.035 A 
HETATM   14  C   UNL     1       4.959   0.242  -0.214  1.00  0.00     0.078 A 
HETATM   15  C   UNL     1       6.150  -0.183  -0.820  1.00  0.00     0.026 A 
HETATM   16  C   UNL     1       6.500  -1.529  -0.862  1.00  0.00     0.002 A 
HETATM   17  C   UNL     1       5.663  -2.480  -0.295  1.00  0.00     0.001 A 
HETATM   18  C   UNL     1       4.481  -2.079   0.317  1.00  0.00     0.009 A 
BRANCH  14  19
HETATM   19  S   UNL     1       4.584   1.992  -0.197  1.00  0.00     0.130 S 
HETATM   20  O   UNL     1       5.630   2.624  -0.951  1.00  0.00    -0.598 OA
HETATM   21  O   UNL     1       3.195   2.143  -0.524  1.00  0.00    -0.598 OA
BRANCH  19  22
HETATM   22  O   UNL     1       4.801   2.338   1.337  1.00  0.00    -0.292 OA
HETATM   23  H   UNL     1       5.459   1.728   1.713  1.00  0.00     0.232 HD
ENDBRANCH  19  22
ENDBRANCH  14  19
ENDBRANCH   1  13
TORSDOF 13
