REMARK  13 active torsions:
REMARK  status: ('A' for Active; 'I' for Inactive)
REMARK    1  A    between atoms: C_1  and  S_4 
REMARK    2  A    between atoms: S_4  and  O_7 
REMARK    3  A    between atoms: C_10  and  C_11 
REMARK    4  A    between atoms: C_11  and  C_12 
REMARK    5  A    between atoms: C_12  and  C_13 
REMARK    6  A    between atoms: C_13  and  C_14 
REMARK    7  A    between atoms: C_14  and  C_15 
REMARK    8  A    between atoms: C_15  and  C_16 
REMARK    9  A    between atoms: C_16  and  C_17 
REMARK   10  A    between atoms: C_17  and  C_18 
REMARK   11  A    between atoms: C_18  and  C_19 
REMARK   12  A    between atoms: C_19  and  C_20 
REMARK   13  A    between atoms: C_20  and  C_21 
ROOT
HETATM    1  C   UNL     1      -3.354  -2.755   0.962  1.00  0.00     0.038 C 
ENDROOT
BRANCH   1   2
HETATM    2  C   UNL     1      -1.887  -2.858   0.576  1.00  0.00    -0.058 A 
HETATM    3  C   UNL     1      -1.135  -3.975   0.942  1.00  0.00     0.009 A 
HETATM    4  C   UNL     1       0.220  -4.046   0.619  1.00  0.00     0.026 A 
HETATM    5  C   UNL     1       0.836  -3.006  -0.080  1.00  0.00     0.072 A 
HETATM    6  C   UNL     1       0.079  -1.893  -0.452  1.00  0.00     0.026 A 
HETATM    7  C   UNL     1      -1.273  -1.819  -0.127  1.00  0.00     0.009 A 
BRANCH   5   8
HETATM    8  S   UNL     1       2.563  -3.088  -0.456  1.00  0.00     0.129 S 
HETATM    9  O   UNL     1       2.588  -4.348  -1.143  1.00  0.00    -0.598 OA
HETATM   10  O   UNL     1       2.958  -1.931  -1.210  1.00  0.00    -0.598 OA
BRANCH   8  11
HETATM   11  O   UNL     1       3.644  -3.356   0.674  1.00  0.00    -0.292 OA
HETATM   12  H   UNL     1       3.917  -4.289   0.631  1.00  0.00     0.232 HD
ENDBRANCH   8  11
ENDBRANCH   5   8
ENDBRANCH   1   2
BRANCH   1  13
HETATM   13  C   UNL     1      -4.282  -3.559   0.020  1.00  0.00     0.005 C 
BRANCH  13  14
HETATM   14  C   UNL     1      -5.769  -3.188   0.231  1.00  0.00     0.000 C 
BRANCH  14  15
HETATM   15  C   UNL     1      -6.126  -1.857  -0.474  1.00  0.00     0.000 C 
BRANCH  15  16
HETATM   16  C   UNL     1      -7.335  -1.145   0.180  1.00  0.00     0.000 C 
BRANCH  16  17
HETATM   17  C   UNL     1      -7.462   0.326  -0.286  1.00  0.00     0.000 C 
BRANCH  17  18
HETATM   18  C   UNL     1      -6.408   1.239   0.387  1.00  0.00     0.000 C 
BRANCH  18  19
HETATM   19  C   UNL     1      -6.354   2.638  -0.265  1.00  0.00     0.000 C 
BRANCH  19  20
HETATM   20  C   UNL     1      -5.207   3.515   0.296  1.00  0.00     0.000 C 
BRANCH  20  21
HETATM   21  C   UNL     1      -3.804   2.975  -0.073  1.00  0.00    -0.000 C 
BRANCH  21  22
HETATM   22  C   UNL     1      -2.688   3.958   0.336  1.00  0.00    -0.005 C 
HETATM   23  C   UNL     1      -1.297   3.380   0.013  1.00  0.00     0.005 C 
ENDBRANCH  21  22
ENDBRANCH  20  21
ENDBRANCH  19  20
ENDBRANCH  18  19
ENDBRANCH  17  18
ENDBRANCH  16  17
ENDBRANCH  15  16
ENDBRANCH  14  15
ENDBRANCH  13  14
ENDBRANCH   1  13
TORSDOF 13
