REMARK  8 active torsions:
REMARK  status: ('A' for Active; 'I' for Inactive)
REMARK    1  A    between atoms: C_1  and  O_2 
REMARK    2  A    between atoms: C_1  and  C_3 
REMARK    3  A    between atoms: O_2  and  C_5 
REMARK    4  A    between atoms: C_5  and  C_7 
REMARK    5  A    between atoms: C_7  and  C_8 
REMARK    6  A    between atoms: C_8  and  C_9 
REMARK    7  A    between atoms: C_9  and  C_10 
REMARK    8  A    between atoms: C_10  and  C_11 
ROOT
HETATM    1  C   UNL     1      -1.568  -0.148   1.288  1.00  0.00     0.027 C 
ENDROOT
BRANCH   1   2
HETATM    2  C   UNL     1      -0.744  -1.140   0.464  1.00  0.00     0.179 C 
BRANCH   2   3
HETATM    3  O   UNL     1       0.666  -1.030   0.763  1.00  0.00    -0.318 OA
BRANCH   3   4
HETATM    4  C   UNL     1       1.591  -0.314   0.083  1.00  0.00     0.282 C 
HETATM    5  O   UNL     1       2.746  -0.227   0.478  1.00  0.00    -0.260 OA
BRANCH   4   6
HETATM    6  C   UNL     1       1.149   0.388  -1.135  1.00  0.00     0.072 C 
HETATM    7  C   UNL     1       1.600   1.626  -1.380  1.00  0.00     0.017 C 
ENDBRANCH   4   6
ENDBRANCH   3   4
ENDBRANCH   2   3
ENDBRANCH   1   2
BRANCH   1   8
HETATM    8  C   UNL     1      -1.475   1.313   0.833  1.00  0.00     0.002 C 
BRANCH   8   9
HETATM    9  C   UNL     1      -2.087   1.586  -0.547  1.00  0.00     0.000 C 
BRANCH   9  10
HETATM   10  C   UNL     1      -3.618   1.678  -0.564  1.00  0.00     0.004 C 
BRANCH  10  11
HETATM   11  C   UNL     1      -4.215   2.888   0.180  1.00  0.00    -0.023 C 
HETATM   12  C   UNL     1      -3.700   4.222  -0.365  1.00  0.00     0.009 C 
HETATM   13  C   UNL     1      -5.743   2.850   0.085  1.00  0.00     0.009 C 
ENDBRANCH  10  11
ENDBRANCH   9  10
ENDBRANCH   8   9
ENDBRANCH   1   8
TORSDOF 8
