REMARK  8 active torsions:
REMARK  status: ('A' for Active; 'I' for Inactive)
REMARK    1  A    between atoms: C_1  and  C_2 
REMARK    2  A    between atoms: C_1  and  O_4 
REMARK    3  A    between atoms: C_2  and  C_3 
REMARK    4  A    between atoms: C_3  and  O_5 
REMARK    5  A    between atoms: O_5  and  C_6 
REMARK    6  A    between atoms: C_6  and  C_7 
REMARK    7  A    between atoms: C_7  and  C_8 
REMARK    8  A    between atoms: C_8  and  O_9 
ROOT
HETATM    1  O   UNL     1       0.570  -1.638  -2.181  1.00  0.00    -0.391 OA
ENDROOT
BRANCH   1   2
HETATM    2  C   UNL     1       0.219  -0.266  -2.066  1.00  0.00     0.169 C 
BRANCH   2   3
HETATM    3  C   UNL     1      -1.033   0.016  -1.230  1.00  0.00     0.052 C 
BRANCH   3   4
HETATM    4  C   UNL     1      -0.874  -0.178   0.274  1.00  0.00     0.166 C 
BRANCH   4   5
HETATM    5  O   UNL     1      -1.036  -1.544   0.620  1.00  0.00    -0.401 OA
HETATM    6  H   UNL     1      -0.926  -1.616   1.586  1.00  0.00     0.209 HD
ENDBRANCH   4   5
ENDBRANCH   3   4
ENDBRANCH   2   3
ENDBRANCH   1   2
BRANCH   1   7
HETATM    7  C   UNL     1       1.392  -2.155  -1.135  1.00  0.00     0.169 C 
BRANCH   7   8
HETATM    8  C   UNL     1       2.829  -2.356  -1.612  1.00  0.00     0.052 C 
BRANCH   8   9
HETATM    9  C   UNL     1       3.618  -1.053  -1.685  1.00  0.00     0.169 C 
BRANCH   9  10
HETATM   10  O   UNL     1       3.840  -0.549  -0.366  1.00  0.00    -0.396 OA
HETATM   11  C   UNL     1       3.461   0.809  -0.207  1.00  0.00     0.201 C 
ENDBRANCH   9  10
ENDBRANCH   8   9
ENDBRANCH   7   8
ENDBRANCH   1   7
TORSDOF 8
