REMARK  21 active torsions:
REMARK  status: ('A' for Active; 'I' for Inactive)
REMARK    1  A    between atoms: C_1  and  C_2 
REMARK    2  A    between atoms: C_1  and  O_3 
REMARK    3  A    between atoms: C_2  and  C_5 
REMARK    4  A    between atoms: O_3  and  C_6 
REMARK    5  A    between atoms: C_5  and  C_7 
REMARK    6  A    between atoms: C_6  and  C_8 
REMARK    7  A    between atoms: C_7  and  C_9 
REMARK    8  A    between atoms: C_8  and  C_10 
REMARK    9  A    between atoms: C_9  and  C_11 
REMARK   10  A    between atoms: C_10  and  C_12 
REMARK   11  A    between atoms: C_11  and  O_13 
REMARK   12  A    between atoms: C_12  and  C_15 
REMARK   13  A    between atoms: O_13  and  C_16 
REMARK   14  A    between atoms: C_15  and  C_17 
REMARK   15  A    between atoms: C_16  and  C_18 
REMARK   16  A    between atoms: C_17  and  C_19 
REMARK   17  A    between atoms: C_18  and  C_20 
REMARK   18  A    between atoms: C_20  and  C_23 
REMARK   19  A    between atoms: C_23  and  C_24 
REMARK   20  A    between atoms: C_24  and  C_25 
REMARK   21  A    between atoms: C_25  and  C_26 
ROOT
HETATM    1  C   UNL     1       0.135   1.601  -2.284  1.00  0.00     0.010 C 
ENDROOT
BRANCH   1   2
HETATM    2  C   UNL     1       0.891   1.415  -0.965  1.00  0.00     0.111 C 
BRANCH   2   3
HETATM    3  C   UNL     1       1.165  -0.028  -0.605  1.00  0.00     0.258 C 
HETATM    4  O   UNL     1       1.600  -0.874  -1.367  1.00  0.00    -0.265 OA
BRANCH   3   5
HETATM    5  O   UNL     1       0.854  -0.272   0.702  1.00  0.00    -0.321 OA
BRANCH   5   6
HETATM    6  C   UNL     1      -0.407  -0.926   0.822  1.00  0.00     0.178 C 
BRANCH   6   7
HETATM    7  C   UNL     1      -0.968  -0.842   2.239  1.00  0.00     0.027 C 
BRANCH   7   8
HETATM    8  C   UNL     1      -0.750   0.468   3.007  1.00  0.00     0.002 C 
BRANCH   8   9
HETATM    9  C   UNL     1      -1.353   1.758   2.441  1.00  0.00     0.000 C 
BRANCH   9  10
HETATM   10  C   UNL     1      -2.876   1.770   2.270  1.00  0.00     0.000 C 
BRANCH  10  11
HETATM   11  C   UNL     1      -3.606   2.774   3.172  1.00  0.00     0.004 C 
BRANCH  11  12
HETATM   12  C   UNL     1      -3.286   4.263   2.920  1.00  0.00    -0.023 C 
HETATM   13  C   UNL     1      -3.742   4.742   1.540  1.00  0.00     0.009 C 
HETATM   14  C   UNL     1      -3.950   5.118   4.004  1.00  0.00     0.009 C 
ENDBRANCH  11  12
ENDBRANCH  10  11
ENDBRANCH   9  10
ENDBRANCH   8   9
ENDBRANCH   7   8
ENDBRANCH   6   7
ENDBRANCH   5   6
ENDBRANCH   3   5
ENDBRANCH   2   3
ENDBRANCH   1   2
BRANCH   1  15
HETATM   15  C   UNL     1      -1.170   0.807  -2.450  1.00  0.00     0.010 C 
BRANCH  15  16
HETATM   16  C   UNL     1      -2.283   1.165  -1.460  1.00  0.00     0.111 C 
BRANCH  16  17
HETATM   17  C   UNL     1      -3.355   2.043  -2.049  1.00  0.00     0.258 C 
HETATM   18  O   UNL     1      -3.075   2.989  -2.780  1.00  0.00    -0.265 OA
BRANCH  17  19
HETATM   19  O   UNL     1      -4.642   1.790  -1.723  1.00  0.00    -0.321 OA
BRANCH  19  20
HETATM   20  C   UNL     1      -5.132   0.814  -0.773  1.00  0.00     0.178 C 
BRANCH  20  21
HETATM   21  C   UNL     1      -5.773  -0.360  -1.511  1.00  0.00     0.027 C 
BRANCH  21  22
HETATM   22  C   UNL     1      -4.820  -1.503  -1.884  1.00  0.00     0.002 C 
BRANCH  22  23
HETATM   23  C   UNL     1      -4.258  -2.247  -0.662  1.00  0.00     0.000 C 
BRANCH  23  24
HETATM   24  C   UNL     1      -4.341  -3.773  -0.782  1.00  0.00     0.000 C 
BRANCH  24  25
HETATM   25  C   UNL     1      -3.584  -4.390  -1.963  1.00  0.00     0.004 C 
BRANCH  25  26
HETATM   26  C   UNL     1      -2.055  -4.208  -1.941  1.00  0.00    -0.023 C 
HETATM   27  C   UNL     1      -1.408  -4.922  -0.753  1.00  0.00     0.009 C 
HETATM   28  C   UNL     1      -1.459  -4.738  -3.248  1.00  0.00     0.009 C 
ENDBRANCH  25  26
ENDBRANCH  24  25
ENDBRANCH  23  24
ENDBRANCH  22  23
ENDBRANCH  21  22
ENDBRANCH  20  21
ENDBRANCH  19  20
ENDBRANCH  17  19
ENDBRANCH  16  17
ENDBRANCH  15  16
ENDBRANCH   1  15
TORSDOF 21
