REMARK  15 active torsions:
REMARK  status: ('A' for Active; 'I' for Inactive)
REMARK    1  A    between atoms: C_1  and  C_2 
REMARK    2  A    between atoms: C_1  and  C_16 
REMARK    3  A    between atoms: C_2  and  C_3 
REMARK    4  A    between atoms: C_3  and  C_4 
REMARK    5  A    between atoms: C_4  and  C_5 
REMARK    6  A    between atoms: C_5  and  C_6 
REMARK    7  A    between atoms: C_6  and  C_7 
REMARK    8  A    between atoms: C_7  and  C_8 
REMARK    9  A    between atoms: C_8  and  C_9 
REMARK   10  A    between atoms: C_9  and  C_10 
REMARK   11  A    between atoms: C_10  and  C_11 
REMARK   12  A    between atoms: C_11  and  C_12 
REMARK   13  A    between atoms: C_12  and  C_13 
REMARK   14  A    between atoms: C_13  and  C_14 
REMARK   15  A    between atoms: C_14  and  O_15 
ROOT
HETATM    1  C   UNL     1      -5.149   0.849   4.263  1.00  0.00     0.000 C 
ENDROOT
BRANCH   1   2
HETATM    2  C   UNL     1      -3.620   0.844   4.240  1.00  0.00     0.000 C 
BRANCH   2   3
HETATM    3  C   UNL     1      -3.087   0.543   2.838  1.00  0.00     0.000 C 
BRANCH   3   4
HETATM    4  C   UNL     1      -1.558   0.538   2.814  1.00  0.00     0.000 C 
BRANCH   4   5
HETATM    5  C   UNL     1      -1.026   0.237   1.412  1.00  0.00     0.000 C 
BRANCH   5   6
HETATM    6  C   UNL     1       0.503   0.231   1.386  1.00  0.00     0.000 C 
BRANCH   6   7
HETATM    7  C   UNL     1       1.033  -0.070  -0.017  1.00  0.00    -0.000 C 
BRANCH   7   8
HETATM    8  C   UNL     1       2.561  -0.076  -0.045  1.00  0.00    -0.005 C 
HETATM    9  C   UNL     1       3.091  -0.376  -1.438  1.00  0.00     0.005 C 
ENDBRANCH   7   8
ENDBRANCH   6   7
ENDBRANCH   5   6
ENDBRANCH   4   5
ENDBRANCH   3   4
ENDBRANCH   2   3
ENDBRANCH   1   2
BRANCH   1  10
HETATM   10  C   UNL     1      -5.682   1.150   5.665  1.00  0.00     0.000 C 
BRANCH  10  11
HETATM   11  C   UNL     1      -7.211   1.155   5.689  1.00  0.00     0.000 C 
BRANCH  11  12
HETATM   12  C   UNL     1      -7.743   1.455   7.092  1.00  0.00     0.000 C 
BRANCH  12  13
HETATM   13  C   UNL     1      -9.272   1.462   7.118  1.00  0.00     0.000 C 
BRANCH  13  14
HETATM   14  C   UNL     1      -9.802   1.764   8.520  1.00  0.00     0.002 C 
BRANCH  14  15
HETATM   15  C   UNL     1     -11.329   1.774   8.547  1.00  0.00     0.026 C 
BRANCH  15  16
HETATM   16  C   UNL     1     -11.864   2.075   9.941  1.00  0.00     0.164 C 
BRANCH  16  17
HETATM   17  O   UNL     1     -13.285   2.060   9.926  1.00  0.00    -0.401 OA
HETATM   18  H   UNL     1     -13.578   2.742   9.298  1.00  0.00     0.209 HD
ENDBRANCH  16  17
ENDBRANCH  15  16
ENDBRANCH  14  15
ENDBRANCH  13  14
ENDBRANCH  12  13
ENDBRANCH  11  12
ENDBRANCH  10  11
ENDBRANCH   1  10
TORSDOF 15
