REMARK  6 active torsions:
REMARK  status: ('A' for Active; 'I' for Inactive)
REMARK    1  A    between atoms: C_1  and  O_3 
REMARK       I    between atoms: C_1  and  N_4 
REMARK    2  A    between atoms: O_3  and  C_9 
REMARK    3  A    between atoms: N_4  and  C_5 
REMARK    4  A    between atoms: C_5  and  C_6 
REMARK    5  A    between atoms: C_6  and  C_7 
REMARK    6  A    between atoms: C_9  and  C_10 
ROOT
HETATM    1  C   UNL     1      -1.449  -2.000   1.819  1.00  0.00    -0.068 C 
HETATM    2  C   UNL     1      -1.862  -2.838   2.574  1.00  0.00    -0.028 C 
HETATM    3  I   UNL     1      -2.602  -4.279   3.873  1.00  0.00     0.018 I 
ENDROOT
BRANCH   1   4
HETATM    4  C   UNL     1      -0.985  -0.967   0.888  1.00  0.00     0.275 C 
BRANCH   4   5
HETATM    5  O   UNL     1       0.445  -0.949   0.871  1.00  0.00    -0.292 OA
BRANCH   5   6
HETATM    6  C   UNL     1       0.942  -0.013   0.028  1.00  0.00     0.361 C 
HETATM    7  O   UNL     1       0.271   0.746  -0.656  1.00  0.00    -0.238 OA
HETATM    8  N   UNL     1       2.303  -0.045   0.057  1.00  0.00    -0.337 N 
HETATM    9  H   UNL     1       2.731  -0.726   0.670  1.00  0.00     0.164 HD
BRANCH   8  10
HETATM   10  C   UNL     1       3.094   0.851  -0.751  1.00  0.00     0.125 C 
BRANCH  10  11
HETATM   11  C   UNL     1       4.591   0.639  -0.560  1.00  0.00     0.019 C 
BRANCH  11  12
HETATM   12  C   UNL     1       5.394   1.605  -1.431  1.00  0.00    -0.003 C 
HETATM   13  C   UNL     1       6.891   1.411  -1.256  1.00  0.00     0.005 C 
ENDBRANCH  11  12
ENDBRANCH  10  11
ENDBRANCH   8  10
ENDBRANCH   5   6
ENDBRANCH   4   5
ENDBRANCH   1   4
TORSDOF 6
