REMARK  20 active torsions:
REMARK  status: ('A' for Active; 'I' for Inactive)
REMARK    1  A    between atoms: C_1  and  C_2 
REMARK    2  A    between atoms: C_1  and  O_10 
REMARK    3  A    between atoms: C_3  and  C_4 
REMARK    4  A    between atoms: C_4  and  O_12 
REMARK    5  A    between atoms: O_10  and  C_13 
REMARK    6  A    between atoms: O_12  and  C_23 
REMARK    7  A    between atoms: C_13  and  C_14 
REMARK    8  A    between atoms: C_14  and  C_15 
REMARK    9  A    between atoms: C_15  and  C_16 
REMARK   10  A    between atoms: C_16  and  C_17 
REMARK   11  A    between atoms: C_17  and  C_18 
REMARK   12  A    between atoms: C_18  and  C_19 
REMARK   13  A    between atoms: C_19  and  C_20 
REMARK   14  A    between atoms: C_23  and  C_24 
REMARK   15  A    between atoms: C_24  and  C_25 
REMARK   16  A    between atoms: C_25  and  C_26 
REMARK   17  A    between atoms: C_26  and  C_27 
REMARK   18  A    between atoms: C_27  and  C_28 
REMARK   19  A    between atoms: C_28  and  C_29 
REMARK   20  A    between atoms: C_29  and  C_30 
ROOT
HETATM    1  C   UNL     1      -0.161  -0.570  -0.481  1.00  0.00     0.055 A 
HETATM    2  C   UNL     1      -0.464  -1.917  -0.252  1.00  0.00     0.055 A 
HETATM    3  C   UNL     1      -1.422  -2.553  -1.054  1.00  0.00     0.018 A 
HETATM    4  C   UNL     1      -2.053  -1.850  -2.084  1.00  0.00     0.001 A 
HETATM    5  C   UNL     1      -1.751  -0.508  -2.310  1.00  0.00     0.001 A 
HETATM    6  C   UNL     1      -0.814   0.135  -1.506  1.00  0.00     0.018 A 
ENDROOT
BRANCH   1   7
HETATM    7  C   UNL     1       0.986   0.132   0.128  1.00  0.00     0.294 C 
HETATM    8  O   UNL     1       1.017   1.323   0.384  1.00  0.00    -0.259 OA
BRANCH   7   9
HETATM    9  O   UNL     1       2.051  -0.668  -0.087  1.00  0.00    -0.317 OA
BRANCH   9  10
HETATM   10  C   UNL     1       3.007  -0.132  -1.005  1.00  0.00     0.179 C 
BRANCH  10  11
HETATM   11  C   UNL     1       3.801  -1.298  -1.589  1.00  0.00     0.027 C 
BRANCH  11  12
HETATM   12  C   UNL     1       2.953  -2.453  -2.145  1.00  0.00     0.002 C 
BRANCH  12  13
HETATM   13  C   UNL     1       2.193  -2.119  -3.434  1.00  0.00     0.000 C 
BRANCH  13  14
HETATM   14  C   UNL     1       2.373  -3.201  -4.506  1.00  0.00     0.000 C 
BRANCH  14  15
HETATM   15  C   UNL     1       1.729  -4.556  -4.189  1.00  0.00     0.000 C 
BRANCH  15  16
HETATM   16  C   UNL     1       0.197  -4.602  -4.257  1.00  0.00     0.004 C 
BRANCH  16  17
HETATM   17  C   UNL     1      -0.440  -4.109  -5.571  1.00  0.00    -0.023 C 
HETATM   18  C   UNL     1       0.130  -4.806  -6.808  1.00  0.00     0.009 C 
HETATM   19  C   UNL     1      -1.957  -4.316  -5.527  1.00  0.00     0.009 C 
ENDBRANCH  16  17
ENDBRANCH  15  16
ENDBRANCH  14  15
ENDBRANCH  13  14
ENDBRANCH  12  13
ENDBRANCH  11  12
ENDBRANCH  10  11
ENDBRANCH   9  10
ENDBRANCH   7   9
ENDBRANCH   1   7
BRANCH   2  20
HETATM   20  C   UNL     1       0.185  -2.681   0.834  1.00  0.00     0.294 C 
HETATM   21  O   UNL     1       0.220  -2.307   1.987  1.00  0.00    -0.259 OA
BRANCH  20  22
HETATM   22  O   UNL     1       0.709  -3.821   0.312  1.00  0.00    -0.317 OA
BRANCH  22  23
HETATM   23  C   UNL     1       1.371  -4.721   1.220  1.00  0.00     0.179 C 
BRANCH  23  24
HETATM   24  C   UNL     1       2.893  -4.538   1.204  1.00  0.00     0.027 C 
BRANCH  24  25
HETATM   25  C   UNL     1       3.386  -3.199   1.755  1.00  0.00     0.002 C 
BRANCH  25  26
HETATM   26  C   UNL     1       3.130  -2.989   3.248  1.00  0.00     0.000 C 
BRANCH  26  27
HETATM   27  C   UNL     1       4.226  -3.558   4.151  1.00  0.00     0.000 C 
BRANCH  27  28
HETATM   28  C   UNL     1       5.570  -2.823   4.085  1.00  0.00     0.000 C 
BRANCH  28  29
HETATM   29  C   UNL     1       5.516  -1.306   4.318  1.00  0.00     0.004 C 
BRANCH  29  30
HETATM   30  C   UNL     1       4.810  -0.855   5.612  1.00  0.00    -0.023 C 
HETATM   31  C   UNL     1       5.484  -1.414   6.864  1.00  0.00     0.009 C 
HETATM   32  C   UNL     1       4.773   0.674   5.678  1.00  0.00     0.009 C 
ENDBRANCH  29  30
ENDBRANCH  28  29
ENDBRANCH  27  28
ENDBRANCH  26  27
ENDBRANCH  25  26
ENDBRANCH  24  25
ENDBRANCH  23  24
ENDBRANCH  22  23
ENDBRANCH  20  22
ENDBRANCH   2  20
TORSDOF 20
