REMARK  9 active torsions:
REMARK  status: ('A' for Active; 'I' for Inactive)
REMARK    1  A    between atoms: C_1  and  O_7 
REMARK    2  A    between atoms: C_2  and  C_8 
REMARK    3  A    between atoms: C_8  and  C_9 
REMARK    4  A    between atoms: C_9  and  C_10 
REMARK    5  A    between atoms: C_10  and  C_11 
REMARK    6  A    between atoms: C_11  and  C_12 
REMARK    7  A    between atoms: C_12  and  C_13 
REMARK    8  A    between atoms: C_13  and  C_14 
REMARK    9  A    between atoms: C_14  and  C_15 
ROOT
HETATM    1  C   UNL     1      -2.551  -0.123  -0.028  1.00  0.00     0.041 C 
ENDROOT
BRANCH   1   2
HETATM    2  C   UNL     1      -1.050   0.039   0.060  1.00  0.00    -0.025 A 
HETATM    3  C   UNL     1      -0.166  -0.996   0.391  1.00  0.00     0.071 A 
HETATM    4  C   UNL     1       1.216  -0.802   0.377  1.00  0.00     0.037 A 
HETATM    5  C   UNL     1       1.742   0.451   0.077  1.00  0.00     0.003 A 
HETATM    6  C   UNL     1       0.885   1.506  -0.216  1.00  0.00     0.001 A 
HETATM    7  C   UNL     1      -0.498   1.299  -0.235  1.00  0.00     0.010 A 
BRANCH   3   8
HETATM    8  O   UNL     1      -0.575  -2.246   0.759  1.00  0.00    -0.360 OA
HETATM    9  H   UNL     1      -1.505  -2.200   1.022  1.00  0.00     0.217 HD
ENDBRANCH   3   8
ENDBRANCH   1   2
BRANCH   1  10
HETATM   10  C   UNL     1      -3.049  -0.668  -1.377  1.00  0.00     0.005 C 
BRANCH  10  11
HETATM   11  C   UNL     1      -2.837  -2.170  -1.613  1.00  0.00     0.000 C 
BRANCH  11  12
HETATM   12  C   UNL     1      -3.594  -3.086  -0.644  1.00  0.00     0.000 C 
BRANCH  12  13
HETATM   13  C   UNL     1      -5.098  -3.195  -0.910  1.00  0.00     0.000 C 
BRANCH  13  14
HETATM   14  C   UNL     1      -5.477  -3.969  -2.177  1.00  0.00     0.000 C 
BRANCH  14  15
HETATM   15  C   UNL     1      -4.958  -5.410  -2.251  1.00  0.00    -0.000 C 
BRANCH  15  16
HETATM   16  C   UNL     1      -5.332  -6.309  -1.069  1.00  0.00    -0.005 C 
HETATM   17  C   UNL     1      -6.832  -6.477  -0.889  1.00  0.00     0.005 C 
ENDBRANCH  15  16
ENDBRANCH  14  15
ENDBRANCH  13  14
ENDBRANCH  12  13
ENDBRANCH  11  12
ENDBRANCH  10  11
ENDBRANCH   1  10
TORSDOF 9
