REMARK  4 active torsions:
REMARK  status: ('A' for Active; 'I' for Inactive)
REMARK    1  A    between atoms: C_1  and  C_2 
REMARK    2  A    between atoms: C_1  and  O_5 
REMARK    3  A    between atoms: C_2  and  C_3 
REMARK    4  A    between atoms: C_3  and  O_7 
ROOT
HETATM    1  C   UNL     1       0.352   0.762   0.596  1.00  0.00     0.222 C 
ENDROOT
BRANCH   1   2
HETATM    2  C   UNL     1       0.819  -0.269  -0.378  1.00  0.00     0.267 C 
HETATM    3  O   UNL     1       1.981  -0.542  -0.636  1.00  0.00    -0.265 OA
BRANCH   2   4
HETATM    4  O   UNL     1      -0.163  -0.958  -1.029  1.00  0.00    -0.326 OA
HETATM    5  C   UNL     1      -1.565  -0.730  -0.813  1.00  0.00     0.213 C 
ENDBRANCH   2   4
ENDBRANCH   1   2
BRANCH   1   6
HETATM    6  C   UNL     1       1.173   1.670   1.453  1.00  0.00     0.267 C 
HETATM    7  O   UNL     1       0.531   2.441   2.181  1.00  0.00    -0.265 OA
BRANCH   6   8
HETATM    8  O   UNL     1       2.502   1.747   1.526  1.00  0.00    -0.326 OA
HETATM    9  C   UNL     1       3.501   1.004   0.824  1.00  0.00     0.213 C 
ENDBRANCH   6   8
ENDBRANCH   1   6
TORSDOF 4
