REMARK  2 active torsions:
REMARK  status: ('A' for Active; 'I' for Inactive)
REMARK    1  A    between atoms: CA_3  and  C_7 
REMARK    2  A    between atoms: C_7  and  OXT_9 
ROOT
HETATM    1  N   UNL     1       1.298  -0.613  -0.131  1.00  0.00    -0.228 NA
HETATM    2  C   UNL     1       0.136  -1.287  -0.033  1.00  0.00     0.127 A 
HETATM    3  CA  UNL     1       1.206   0.758  -0.162  1.00  0.00     0.153 A 
HETATM    4  C   UNL     1       0.001   1.454  -0.093  1.00  0.00     0.069 A 
HETATM    5  C   UNL     1      -1.110  -0.691   0.040  1.00  0.00     0.046 A 
HETATM    6  C   UNL     1      -1.173   0.702   0.010  1.00  0.00     0.030 A 
HETATM    7 CL   UNL     1      -0.156   3.166  -0.119  1.00  0.00    -0.082 Cl
HETATM    8 CL   UNL     1       0.305  -2.991  -0.002  1.00  0.00    -0.062 Cl
ENDROOT
BRANCH   3   9
HETATM    9  C   UNL     1       2.544   1.426  -0.277  1.00  0.00     0.197 C 
HETATM   10  O   UNL     1       2.764   2.619  -0.348  1.00  0.00    -0.645 OA
BRANCH   9  11
HETATM   11  OXT UNL     1       3.529   0.488  -0.294  1.00  0.00    -0.772 OA
HETATM   12  HXT UNL     1       3.131  -0.412  -0.233  1.00  0.00     0.167 HD
ENDBRANCH   9  11
ENDBRANCH   3   9
TORSDOF 2
