REMARK  5 active torsions:
REMARK  status: ('A' for Active; 'I' for Inactive)
REMARK    1  A    between atoms: C_1  and  O_2 
REMARK    2  A    between atoms: C_3  and  C_8 
REMARK    3  A    between atoms: C_7  and  C_17 
REMARK    4  A    between atoms: C_8  and  C_11 
REMARK    5  A    between atoms: C_17  and  C_20 
ROOT
HETATM    1  C   UNL     1      -1.424   0.163   0.456  1.00  0.00     0.073 C 
HETATM    2  C   UNL     1      -0.844  -1.085   0.224  1.00  0.00    -0.012 C 
HETATM    3  C   UNL     1      -0.677   1.328   0.313  1.00  0.00     0.037 C 
HETATM    4  C   UNL     1       0.685   1.269   0.011  1.00  0.00     0.011 C 
HETATM    5  C   UNL     1       0.582  -1.096   0.150  1.00  0.00     0.019 C 
HETATM    6  C   UNL     1       1.378   0.044  -0.039  1.00  0.00    -0.045 C 
ENDROOT
BRANCH   2   7
HETATM    7  C   UNL     1      -1.590  -2.439  -0.005  1.00  0.00     0.009 C 
HETATM    8  C   UNL     1      -0.956  -3.161  -1.235  1.00  0.00     0.025 C 
HETATM    9  C   UNL     1      -1.334  -3.306   1.253  1.00  0.00     0.025 C 
BRANCH   7  10
HETATM   10  C   UNL     1      -3.099  -2.391  -0.385  1.00  0.00    -0.046 A 
HETATM   11  C   UNL     1      -3.985  -3.420  -0.003  1.00  0.00     0.008 A 
HETATM   12  C   UNL     1      -5.330  -3.417  -0.387  1.00  0.00     0.001 A 
HETATM   13  C   UNL     1      -5.833  -2.375  -1.155  1.00  0.00     0.000 A 
HETATM   14  C   UNL     1      -4.978  -1.366  -1.582  1.00  0.00     0.001 A 
HETATM   15  C   UNL     1      -3.622  -1.398  -1.237  1.00  0.00     0.008 A 
ENDBRANCH   7  10
ENDBRANCH   2   7
BRANCH   1  16
HETATM   16  O   UNL     1      -2.714   0.361   0.850  1.00  0.00    -0.360 OA
HETATM   17  H   UNL     1      -3.097  -0.489   1.122  1.00  0.00     0.217 HD
ENDBRANCH   1  16
BRANCH   6  18
HETATM   18  C   UNL     1       2.928   0.041  -0.273  1.00  0.00     0.007 C 
HETATM   19  C   UNL     1       3.225   0.787  -1.599  1.00  0.00     0.025 C 
HETATM   20  C   UNL     1       3.515   0.862   0.918  1.00  0.00     0.025 C 
BRANCH  18  21
HETATM   21  C   UNL     1       3.702  -1.315  -0.397  1.00  0.00    -0.046 C 
HETATM   22  C   UNL     1       5.083  -1.382  -0.092  1.00  0.00     0.008 C 
HETATM   23  C   UNL     1       5.810  -2.577  -0.159  1.00  0.00     0.001 C 
HETATM   24  C   UNL     1       5.178  -3.754  -0.523  1.00  0.00     0.000 C 
HETATM   25  C   UNL     1       3.847  -3.711  -0.917  1.00  0.00     0.001 C 
HETATM   26  C   UNL     1       3.150  -2.494  -0.919  1.00  0.00     0.008 C 
ENDBRANCH  18  21
ENDBRANCH   6  18
TORSDOF 5
