REMARK  9 active torsions:
REMARK  status: ('A' for Active; 'I' for Inactive)
REMARK    1  A    between atoms: C_1  and  C_2 
REMARK    2  A    between atoms: C_1  and  O_4 
REMARK    3  A    between atoms: C_2  and  O_5 
REMARK    4  A    between atoms: O_5  and  C_6 
REMARK    5  A    between atoms: C_6  and  C_7 
REMARK    6  A    between atoms: C_7  and  O_9 
REMARK    7  A    between atoms: O_9  and  C_10 
REMARK    8  A    between atoms: C_10  and  C_11 
REMARK    9  A    between atoms: C_11  and  O_13 
ROOT
HETATM    1  C   UNL     1      -1.205   2.609   2.320  1.00  0.00     0.141 C 
HETATM    2  C   UNL     1      -0.375   2.446   3.591  1.00  0.00     0.042 C 
ENDROOT
BRANCH   1   3
HETATM    3  C   UNL     1      -0.982   1.473   1.306  1.00  0.00     0.199 C 
BRANCH   3   4
HETATM    4  O   UNL     1      -0.934   0.167   1.879  1.00  0.00    -0.382 OA
BRANCH   4   5
HETATM    5  C   UNL     1       0.226  -0.606   1.524  1.00  0.00     0.141 C 
HETATM    6  C   UNL     1       1.481  -0.047   2.198  1.00  0.00     0.042 C 
BRANCH   5   7
HETATM    7  C   UNL     1       0.460  -0.898   0.012  1.00  0.00     0.198 C 
BRANCH   7   8
HETATM    8  O   UNL     1      -0.270  -0.064  -0.887  1.00  0.00    -0.393 OA
HETATM    9  C   UNL     1       0.554   0.691  -1.762  1.00  0.00     0.201 C 
ENDBRANCH   7   8
ENDBRANCH   5   7
ENDBRANCH   4   5
ENDBRANCH   3   4
ENDBRANCH   1   3
BRANCH   1  10
HETATM   10  O   UNL     1      -0.971   3.953   1.859  1.00  0.00    -0.382 OA
BRANCH  10  11
HETATM   11  C   UNL     1      -0.583   4.210   0.516  1.00  0.00     0.199 C 
BRANCH  11  12
HETATM   12  C   UNL     1       0.850   4.769   0.418  1.00  0.00     0.138 C 
HETATM   13  C   UNL     1       1.943   3.828   0.908  1.00  0.00     0.041 C 
BRANCH  12  14
HETATM   14  O   UNL     1       1.139   5.114  -0.941  1.00  0.00    -0.394 OA
HETATM   15  H   UNL     1       1.194   4.294  -1.456  1.00  0.00     0.210 HD
ENDBRANCH  12  14
ENDBRANCH  11  12
ENDBRANCH  10  11
ENDBRANCH   1  10
TORSDOF 9
