REMARK  7 active torsions:
REMARK  status: ('A' for Active; 'I' for Inactive)
REMARK    1  A    between atoms: C_1  and  C_11 
REMARK    2  A    between atoms: C_1  and  C_2 
REMARK       I    between atoms: N_4  and  C_10 
REMARK    3  A    between atoms: N_6  and  C_15 
REMARK    4  A    between atoms: N_8  and  C_11 
REMARK    5  A    between atoms: C_16  and  C_32 
REMARK    6  A    between atoms: O_29  and  C_32 
REMARK    7  A    between atoms: O_29  and  C_31 
ROOT
HETATM    1  C   UNL     1      -0.783  -1.053  -0.348  1.00  0.00     0.212 C 
HETATM    2  O   UNL     1       0.582  -1.111   0.087  1.00  0.00    -0.340 OA
HETATM    3  O   UNL     1      -1.245   0.308  -0.224  1.00  0.00    -0.347 OA
HETATM    4  C   UNL     1       1.097   0.228   0.111  1.00  0.00     0.173 C 
HETATM    5  C   UNL     1      -0.085   1.134  -0.174  1.00  0.00     0.206 C 
ENDROOT
BRANCH   4   6
HETATM    6  C   UNL     1       2.207   0.451  -0.931  1.00  0.00     0.209 C 
BRANCH   6   7
HETATM    7  O   UNL     1       3.375  -0.311  -0.605  1.00  0.00    -0.349 OA
BRANCH   7   8
HETATM    8  C   UNL     1       4.334  -0.227  -1.581  1.00  0.00     0.069 A 
HETATM    9  C   UNL     1       4.846   0.974  -2.051  1.00  0.00     0.039 A 
HETATM   10  C   UNL     1       5.858   0.980  -3.029  1.00  0.00     0.032 A 
HETATM   11  C   UNL     1       6.409  -0.196  -3.569  1.00  0.00     0.030 A 
HETATM   12  C   UNL     1       5.873  -1.389  -3.047  1.00  0.00     0.032 A 
HETATM   13  C   UNL     1       4.863  -1.411  -2.067  1.00  0.00     0.039 A 
BRANCH  11  14
HETATM   14  N   UNL     1       7.463  -0.178  -4.479  1.00  0.00    -0.378 N 
HETATM   15  C   UNL     1       7.858   1.054  -5.205  1.00  0.00     0.143 C 
HETATM   16  C   UNL     1       9.382   1.079  -5.428  1.00  0.00     0.145 C 
HETATM   17  N   UNL     1       9.865  -0.134  -6.096  1.00  0.00    -0.349 N 
HETATM   18  C   UNL     1       9.423  -1.375  -5.449  1.00  0.00     0.145 C 
HETATM   19  C   UNL     1      10.834  -0.006  -7.072  1.00  0.00     0.215 C 
HETATM   20  C   UNL     1       7.899  -1.399  -5.196  1.00  0.00     0.143 C 
HETATM   21  O   UNL     1      11.206   1.100  -7.477  1.00  0.00    -0.274 OA
HETATM   22  C   UNL     1      11.435  -1.237  -7.703  1.00  0.00     0.117 C 
ENDBRANCH  11  14
ENDBRANCH   7   8
ENDBRANCH   6   7
ENDBRANCH   4   6
BRANCH   1  23
HETATM   23  C   UNL     1      -0.815  -1.351  -1.877  1.00  0.00     0.203 C 
BRANCH  23  24
HETATM   24  N   UNL     1      -0.330  -2.628  -2.360  1.00  0.00    -0.345 N 
HETATM   25  C   UNL     1       0.543  -3.494  -1.768  1.00  0.00     0.209 A 
HETATM   26  N   UNL     1       0.673  -4.599  -2.469  1.00  0.00    -0.255 NA
HETATM   27  C   UNL     1      -0.116  -4.428  -3.573  1.00  0.00     0.135 A 
HETATM   28  C   UNL     1      -0.737  -3.203  -3.538  1.00  0.00     0.111 A 
ENDBRANCH  23  24
ENDBRANCH   1  23
BRANCH   1  29
HETATM   29  C   UNL     1      -1.697  -1.915   0.540  1.00  0.00     0.027 A 
HETATM   30  C   UNL     1      -1.907  -1.641   1.912  1.00  0.00     0.047 A 
HETATM   31  C   UNL     1      -2.810  -2.394   2.683  1.00  0.00     0.048 A 
HETATM   32 CL   UNL     1      -1.100  -0.366   2.762  1.00  0.00    -0.084 Cl
HETATM   33  C   UNL     1      -3.501  -3.456   2.116  1.00  0.00     0.035 A 
HETATM   34  C   UNL     1      -3.300  -3.775   0.784  1.00  0.00     0.024 A 
HETATM   35 CL   UNL     1      -4.612  -4.369   3.057  1.00  0.00    -0.084 Cl
HETATM   36  C   UNL     1      -2.420  -3.009   0.009  1.00  0.00     0.016 A 
ENDBRANCH   1  29
TORSDOF 7
