REMARK  7 active torsions:
REMARK  status: ('A' for Active; 'I' for Inactive)
REMARK    1  A    between atoms: C_1  and  C_2 
REMARK    2  A    between atoms: C_1  and  O_5 
REMARK    3  A    between atoms: C_2  and  O_4 
REMARK    4  A    between atoms: C_3  and  C_7 
REMARK    5  A    between atoms: C_3  and  C_6 
REMARK    6  A    between atoms: O_4  and  C_14 
REMARK    7  A    between atoms: O_5  and  C_23 
ROOT
HETATM    1  C   UNL     1       1.351  -4.053   3.292  1.00  0.00     0.015 A 
HETATM    2  C   UNL     1       0.268  -4.599   2.593  1.00  0.00     0.018 A 
HETATM    3  C   UNL     1       1.903  -2.851   2.840  1.00  0.00     0.018 A 
HETATM    4  C   UNL     1       0.273  -2.721   1.049  1.00  0.00     0.070 A 
HETATM    5  C   UNL     1      -0.269  -3.932   1.486  1.00  0.00     0.038 A 
HETATM    6  C   UNL     1       1.358  -2.184   1.736  1.00  0.00     0.038 A 
ENDROOT
BRANCH   4   7
HETATM    7  O   UNL     1      -0.362  -2.166  -0.025  1.00  0.00    -0.331 OA
BRANCH   7   8
HETATM    8  C   UNL     1       0.290  -1.221  -0.877  1.00  0.00     0.148 C 
HETATM    9  C   UNL     1      -0.713  -0.945  -2.015  1.00  0.00     0.057 C 
HETATM   10  C   UNL     1       1.519  -1.886  -1.533  1.00  0.00     0.057 C 
BRANCH   8  11
HETATM   11  C   UNL     1       0.677   0.164  -0.294  1.00  0.00     0.294 C 
HETATM   12  O   UNL     1       1.586   0.855  -0.747  1.00  0.00    -0.262 OA
BRANCH  11  13
HETATM   13  O   UNL     1       0.043   0.515   0.856  1.00  0.00    -0.314 OA
BRANCH  13  14
HETATM   14  C   UNL     1      -1.330   0.937   0.777  1.00  0.00     0.123 C 
HETATM   15  C   UNL     1      -2.210  -0.073   1.501  1.00  0.00     0.040 C 
HETATM   16  C   UNL     1      -1.424   2.299   1.459  1.00  0.00     0.040 C 
ENDBRANCH  13  14
ENDBRANCH  11  13
ENDBRANCH   8  11
ENDBRANCH   7   8
ENDBRANCH   4   7
BRANCH   1  17
HETATM   17  C   UNL     1       1.901  -4.806   4.458  1.00  0.00     0.192 C 
HETATM   18  O   UNL     1       1.556  -5.965   4.657  1.00  0.00    -0.287 OA
BRANCH  17  19
HETATM   19  C   UNL     1       2.908  -4.209   5.370  1.00  0.00     0.015 A 
HETATM   20  C   UNL     1       2.749  -2.928   5.912  1.00  0.00     0.017 A 
HETATM   21  C   UNL     1       3.758  -2.382   6.711  1.00  0.00     0.025 A 
HETATM   22  C   UNL     1       4.902  -3.130   6.992  1.00  0.00     0.034 A 
HETATM   23  C   UNL     1       5.040  -4.426   6.498  1.00  0.00     0.025 A 
HETATM   24 CL   UNL     1       6.154  -2.445   7.953  1.00  0.00    -0.084 Cl
HETATM   25  C   UNL     1       4.038  -4.970   5.691  1.00  0.00     0.017 A 
ENDBRANCH  17  19
ENDBRANCH   1  17
TORSDOF 7
