REMARK  4 active torsions:
REMARK  status: ('A' for Active; 'I' for Inactive)
REMARK    1  A    between atoms: C_1  and  C_2 
REMARK    2  A    between atoms: C_1  and  N_3 
REMARK    3  A    between atoms: C_1  and  C_4 
REMARK    4  A    between atoms: C_1  and  C_5 
ROOT
HETATM    1  C   UNL     1       1.208  -0.107   0.001  1.00  0.00     0.121 C 
ENDROOT
BRANCH   1   2
HETATM    2  C   UNL     1       0.655  -0.759  -1.331  1.00  0.00    -0.020 A 
HETATM    3  C   UNL     1       0.008  -2.003  -1.427  1.00  0.00     0.010 A 
HETATM    4  C   UNL     1      -0.338  -2.549  -2.672  1.00  0.00     0.001 A 
HETATM    5  C   UNL     1      -0.133  -1.830  -3.845  1.00  0.00     0.000 A 
HETATM    6  C   UNL     1       0.430  -0.565  -3.781  1.00  0.00     0.001 A 
HETATM    7  C   UNL     1       0.842  -0.052  -2.549  1.00  0.00     0.010 A 
ENDBRANCH   1   2
BRANCH   1   8
HETATM    8  N   UNL     1       0.777  -0.776   1.283  1.00  0.00    -0.327 N 
HETATM    9  C   UNL     1       0.889  -2.099   1.651  1.00  0.00     0.113 C 
HETATM   10  C   UNL     1       0.361  -2.192   2.918  1.00  0.00     0.135 C 
HETATM   11  N   UNL     1       0.043  -0.960   3.398  1.00  0.00    -0.255 NA
HETATM   12  C   UNL     1       0.371  -0.125   2.435  1.00  0.00     0.210 C 
ENDBRANCH   1   8
BRANCH   1  13
HETATM   13  C   UNL     1       0.524   1.352  -0.026  1.00  0.00    -0.020 A 
HETATM   14  C   UNL     1      -0.884   1.448   0.131  1.00  0.00     0.010 A 
HETATM   15  C   UNL     1      -1.542   2.681   0.140  1.00  0.00     0.001 A 
HETATM   16  C   UNL     1      -0.820   3.854  -0.034  1.00  0.00     0.000 A 
HETATM   17  C   UNL     1       0.549   3.790  -0.269  1.00  0.00     0.001 A 
HETATM   18  C   UNL     1       1.205   2.554  -0.301  1.00  0.00     0.010 A 
ENDBRANCH   1  13
BRANCH   1  19
HETATM   19  C   UNL     1       2.793  -0.129   0.045  1.00  0.00     0.002 C 
HETATM   20  C   UNL     1       3.619  -1.132  -0.525  1.00  0.00     0.043 C 
HETATM   21  C   UNL     1       5.022  -1.011  -0.531  1.00  0.00     0.024 C 
HETATM   22 CL   UNL     1       3.083  -2.641  -1.177  1.00  0.00    -0.084 Cl
HETATM   23  C   UNL     1       5.650   0.075   0.057  1.00  0.00     0.002 C 
HETATM   24  C   UNL     1       4.881   1.003   0.737  1.00  0.00     0.001 C 
HETATM   25  C   UNL     1       3.486   0.871   0.773  1.00  0.00     0.012 C 
ENDBRANCH   1  19
TORSDOF 4
