REMARK  12 active torsions:
REMARK  status: ('A' for Active; 'I' for Inactive)
REMARK    1  A    between atoms: C_1  and  C_3 
REMARK    2  A    between atoms: C_2  and  C_4 
REMARK    3  A    between atoms: C_3  and  O_7 
REMARK    4  A    between atoms: C_4  and  O_8 
REMARK    5  A    between atoms: O_7  and  C_13 
REMARK    6  A    between atoms: O_8  and  C_18 
REMARK    7  A    between atoms: C_13  and  C_14 
REMARK    8  A    between atoms: C_14  and  C_15 
REMARK    9  A    between atoms: C_15  and  C_16 
REMARK   10  A    between atoms: C_18  and  C_19 
REMARK   11  A    between atoms: C_19  and  C_20 
REMARK   12  A    between atoms: C_20  and  C_21 
ROOT
HETATM    1  C   UNL     1      -1.596  -0.112   0.019  1.00  0.00     0.055 A 
HETATM    2  C   UNL     1      -0.832  -1.289  -0.044  1.00  0.00     0.055 A 
HETATM    3  C   UNL     1      -0.940   1.135   0.002  1.00  0.00     0.018 A 
HETATM    4  C   UNL     1       0.573  -1.197  -0.094  1.00  0.00     0.018 A 
HETATM    5  C   UNL     1       0.454   1.210  -0.056  1.00  0.00     0.001 A 
HETATM    6  C   UNL     1       1.211   0.044  -0.096  1.00  0.00     0.001 A 
ENDROOT
BRANCH   1   7
HETATM    7  C   UNL     1      -3.063  -0.132   0.231  1.00  0.00     0.294 C 
HETATM    8  O   UNL     1      -3.639  -0.968   0.910  1.00  0.00    -0.259 OA
BRANCH   7   9
HETATM    9  O   UNL     1      -3.642   0.915  -0.416  1.00  0.00    -0.317 OA
BRANCH   9  10
HETATM   10  C   UNL     1      -5.077   0.933  -0.382  1.00  0.00     0.179 C 
BRANCH  10  11
HETATM   11  C   UNL     1      -5.589   2.374  -0.413  1.00  0.00     0.027 C 
BRANCH  11  12
HETATM   12  C   UNL     1      -7.116   2.386  -0.517  1.00  0.00     0.002 C 
BRANCH  12  13
HETATM   13  C   UNL     1      -7.706   3.795  -0.485  1.00  0.00    -0.004 C 
HETATM   14  C   UNL     1      -9.222   3.748  -0.630  1.00  0.00     0.005 C 
ENDBRANCH  12  13
ENDBRANCH  11  12
ENDBRANCH  10  11
ENDBRANCH   9  10
ENDBRANCH   7   9
ENDBRANCH   1   7
BRANCH   2  15
HETATM   15  C   UNL     1      -1.380  -2.668  -0.029  1.00  0.00     0.294 C 
HETATM   16  O   UNL     1      -0.784  -3.598   0.494  1.00  0.00    -0.259 OA
BRANCH  15  17
HETATM   17  O   UNL     1      -2.518  -2.761  -0.756  1.00  0.00    -0.317 OA
BRANCH  17  18
HETATM   18  C   UNL     1      -3.151  -4.052  -0.718  1.00  0.00     0.179 C 
BRANCH  18  19
HETATM   19  C   UNL     1      -4.661  -3.853  -0.809  1.00  0.00     0.027 C 
BRANCH  19  20
HETATM   20  C   UNL     1      -5.410  -5.184  -0.877  1.00  0.00     0.002 C 
BRANCH  20  21
HETATM   21  C   UNL     1      -6.920  -4.963  -0.976  1.00  0.00    -0.004 C 
HETATM   22  C   UNL     1      -7.674  -6.276  -1.111  1.00  0.00     0.005 C 
ENDBRANCH  20  21
ENDBRANCH  19  20
ENDBRANCH  18  19
ENDBRANCH  17  18
ENDBRANCH  15  17
ENDBRANCH   2  15
TORSDOF 12
