REMARK  9 active torsions:
REMARK  status: ('A' for Active; 'I' for Inactive)
REMARK    1  A    between atoms: C_1  and  C_2 
REMARK    2  A    between atoms: C_1  and  O_11 
REMARK    3  A    between atoms: C_2  and  C_3 
REMARK    4  A    between atoms: C_3  and  C_4 
REMARK    5  A    between atoms: C_4  and  C_5 
REMARK    6  A    between atoms: C_5  and  C_6 
REMARK    7  A    between atoms: C_6  and  C_7 
REMARK    8  A    between atoms: C_7  and  C_8 
REMARK    9  A    between atoms: C_8  and  C_9 
ROOT
HETATM    1  C   UNL     1      -2.416  -0.123  -0.237  1.00  0.00     0.384 C 
HETATM    2  F   UNL     1      -3.268  -0.134   0.830  1.00  0.00    -0.192 F 
HETATM    3  F   UNL     1      -1.690   1.029  -0.054  1.00  0.00    -0.192 F 
ENDROOT
BRANCH   1   4
HETATM    4  C   UNL     1      -1.450  -1.298  -0.117  1.00  0.00     0.385 C 
HETATM    5  F   UNL     1      -2.179  -2.450  -0.087  1.00  0.00    -0.192 F 
HETATM    6  F   UNL     1      -0.864  -1.225   1.116  1.00  0.00    -0.192 F 
BRANCH   4   7
HETATM    7  C   UNL     1      -0.347  -1.422  -1.167  1.00  0.00     0.388 C 
HETATM    8  F   UNL     1      -0.936  -1.652  -2.377  1.00  0.00    -0.192 F 
HETATM    9  F   UNL     1       0.372  -2.555  -0.912  1.00  0.00    -0.192 F 
BRANCH   7  10
HETATM   10  C   UNL     1       0.601  -0.233  -1.281  1.00  0.00     0.396 C 
HETATM   11  F   UNL     1      -0.101   0.899  -1.583  1.00  0.00    -0.187 F 
HETATM   12  F   UNL     1       1.430  -0.420  -2.352  1.00  0.00    -0.187 F 
BRANCH  10  13
HETATM   13  C   UNL     1       1.398  -0.051   0.002  1.00  0.00     0.222 C 
HETATM   14  O   UNL     1       2.421  -0.667   0.276  1.00  0.00    -0.645 OA
BRANCH  13  15
HETATM   15  O   UNL     1       0.878   0.865   0.863  1.00  0.00    -0.772 OA
HETATM   16  H   UNL     1       0.100   1.377   0.550  1.00  0.00     0.167 HD
ENDBRANCH  13  15
ENDBRANCH  10  13
ENDBRANCH   7  10
ENDBRANCH   4   7
ENDBRANCH   1   4
BRANCH   1  17
HETATM   17  C   UNL     1      -3.247  -0.009  -1.511  1.00  0.00     0.384 C 
HETATM   18  F   UNL     1      -3.925   1.176  -1.492  1.00  0.00    -0.192 F 
HETATM   19  F   UNL     1      -2.394   0.117  -2.570  1.00  0.00    -0.192 F 
BRANCH  17  20
HETATM   20  C   UNL     1      -4.241  -1.131  -1.796  1.00  0.00     0.387 C 
HETATM   21  F   UNL     1      -4.844  -0.870  -2.997  1.00  0.00    -0.192 F 
HETATM   22  F   UNL     1      -3.531  -2.280  -2.011  1.00  0.00    -0.192 F 
BRANCH  20  23
HETATM   23  C   UNL     1      -5.321  -1.407  -0.764  1.00  0.00     0.409 C 
HETATM   24  F   UNL     1      -6.083  -2.457  -1.203  1.00  0.00    -0.189 F 
HETATM   25  F   UNL     1      -4.754  -1.845   0.394  1.00  0.00    -0.189 F 
BRANCH  23  26
HETATM   26  C   UNL     1      -6.220  -0.211  -0.504  1.00  0.00     0.461 C 
HETATM   27  F   UNL     1      -6.775   0.268  -1.638  1.00  0.00    -0.165 F 
HETATM   28  F   UNL     1      -7.234  -0.525   0.338  1.00  0.00    -0.165 F 
HETATM   29  F   UNL     1      -5.545   0.807   0.076  1.00  0.00    -0.165 F 
ENDBRANCH  23  26
ENDBRANCH  20  23
ENDBRANCH  17  20
ENDBRANCH   1  17
TORSDOF 9
