REMARK  8 active torsions:
REMARK  status: ('A' for Active; 'I' for Inactive)
REMARK    1  A    between atoms: C_1  and  C_2 
REMARK    2  A    between atoms: C_1  and  O_10 
REMARK    3  A    between atoms: C_2  and  C_3 
REMARK    4  A    between atoms: C_3  and  C_4 
REMARK    5  A    between atoms: C_4  and  C_5 
REMARK    6  A    between atoms: C_5  and  C_6 
REMARK    7  A    between atoms: C_6  and  C_7 
REMARK    8  A    between atoms: C_7  and  C_8 
ROOT
HETATM    1  C   UNL     1      -1.494   0.027   1.335  1.00  0.00     0.385 C 
HETATM    2  F   UNL     1      -2.198   0.120   2.500  1.00  0.00    -0.192 F 
HETATM    3  F   UNL     1      -0.884   1.242   1.196  1.00  0.00    -0.192 F 
ENDROOT
BRANCH   1   4
HETATM    4  C   UNL     1      -0.416  -1.044   1.480  1.00  0.00     0.388 C 
HETATM    5  F   UNL     1      -1.032  -2.232   1.752  1.00  0.00    -0.192 F 
HETATM    6  F   UNL     1       0.320  -0.772   2.599  1.00  0.00    -0.192 F 
BRANCH   4   7
HETATM    7  C   UNL     1       0.517  -1.217   0.287  1.00  0.00     0.396 C 
HETATM    8  F   UNL     1      -0.200  -1.549  -0.826  1.00  0.00    -0.187 F 
HETATM    9  F   UNL     1       1.333  -2.292   0.506  1.00  0.00    -0.187 F 
BRANCH   7  10
HETATM   10  C   UNL     1       1.329   0.047   0.050  1.00  0.00     0.222 C 
HETATM   11  O   UNL     1       2.340   0.351   0.670  1.00  0.00    -0.645 OA
BRANCH  10  12
HETATM   12  O   UNL     1       0.830   0.855  -0.924  1.00  0.00    -0.772 OA
HETATM   13  H   UNL     1       0.058   0.511  -1.427  1.00  0.00     0.167 HD
ENDBRANCH  10  12
ENDBRANCH   7  10
ENDBRANCH   4   7
ENDBRANCH   1   4
BRANCH   1  14
HETATM   14  C   UNL     1      -2.492  -0.126   0.192  1.00  0.00     0.384 C 
HETATM   15  F   UNL     1      -3.320   0.960   0.170  1.00  0.00    -0.192 F 
HETATM   16  F   UNL     1      -1.794  -0.017  -0.986  1.00  0.00    -0.192 F 
BRANCH  14  17
HETATM   17  C   UNL     1      -3.348  -1.387   0.164  1.00  0.00     0.387 C 
HETATM   18  F   UNL     1      -4.110  -1.357  -0.974  1.00  0.00    -0.192 F 
HETATM   19  F   UNL     1      -2.517  -2.457  -0.015  1.00  0.00    -0.192 F 
BRANCH  17  20
HETATM   20  C   UNL     1      -4.257  -1.655   1.351  1.00  0.00     0.409 C 
HETATM   21  F   UNL     1      -4.894  -2.851   1.145  1.00  0.00    -0.189 F 
HETATM   22  F   UNL     1      -3.513  -1.839   2.475  1.00  0.00    -0.189 F 
BRANCH  20  23
HETATM   23  C   UNL     1      -5.295  -0.567   1.564  1.00  0.00     0.461 C 
HETATM   24  F   UNL     1      -6.016  -0.324   0.448  1.00  0.00    -0.165 F 
HETATM   25  F   UNL     1      -6.171  -0.900   2.542  1.00  0.00    -0.165 F 
HETATM   26  F   UNL     1      -4.726   0.599   1.940  1.00  0.00    -0.165 F 
ENDBRANCH  20  23
ENDBRANCH  17  20
ENDBRANCH  14  17
ENDBRANCH   1  14
TORSDOF 8
