REMARK  6 active torsions:
REMARK  status: ('A' for Active; 'I' for Inactive)
REMARK    1  A    between atoms: C_1  and  C_2 
REMARK    2  A    between atoms: C_1  and  O_9 
REMARK    3  A    between atoms: C_2  and  C_3 
REMARK    4  A    between atoms: C_3  and  C_4 
REMARK    5  A    between atoms: C_4  and  C_5 
REMARK    6  A    between atoms: C_5  and  C_6 
ROOT
HETATM    1  C   UNL     1      -0.639   1.799  -0.248  1.00  0.00     0.389 C 
HETATM    2  F   UNL     1      -1.195   2.848   0.428  1.00  0.00    -0.192 F 
HETATM    3  F   UNL     1       0.104   2.383  -1.234  1.00  0.00    -0.192 F 
ENDROOT
BRANCH   1   4
HETATM    4  C   UNL     1       0.276   1.018   0.687  1.00  0.00     0.396 C 
HETATM    5  F   UNL     1      -0.458   0.461   1.696  1.00  0.00    -0.187 F 
HETATM    6  F   UNL     1       1.128   1.884   1.314  1.00  0.00    -0.187 F 
BRANCH   4   7
HETATM    7  C   UNL     1       1.042  -0.052  -0.074  1.00  0.00     0.222 C 
HETATM    8  O   UNL     1       2.048   0.151  -0.739  1.00  0.00    -0.645 OA
BRANCH   7   9
HETATM    9  O   UNL     1       0.505  -1.298   0.030  1.00  0.00    -0.772 OA
HETATM   10  H   UNL     1      -0.260  -1.401   0.640  1.00  0.00     0.167 HD
ENDBRANCH   7   9
ENDBRANCH   4   7
ENDBRANCH   1   4
BRANCH   1  11
HETATM   11  C   UNL     1      -1.763   0.997  -0.889  1.00  0.00     0.387 C 
HETATM   12  F   UNL     1      -2.472   1.822  -1.718  1.00  0.00    -0.192 F 
HETATM   13  F   UNL     1      -1.207   0.060  -1.718  1.00  0.00    -0.192 F 
BRANCH  11  14
HETATM   14  C   UNL     1      -2.738   0.280   0.029  1.00  0.00     0.409 C 
HETATM   15  F   UNL     1      -3.661  -0.377  -0.741  1.00  0.00    -0.189 F 
HETATM   16  F   UNL     1      -2.075  -0.718   0.693  1.00  0.00    -0.189 F 
BRANCH  14  17
HETATM   17  C   UNL     1      -3.456   1.204   0.997  1.00  0.00     0.461 C 
HETATM   18  F   UNL     1      -4.093   2.213   0.367  1.00  0.00    -0.165 F 
HETATM   19  F   UNL     1      -4.381   0.531   1.723  1.00  0.00    -0.165 F 
HETATM   20  F   UNL     1      -2.603   1.755   1.888  1.00  0.00    -0.165 F 
ENDBRANCH  14  17
ENDBRANCH  11  14
ENDBRANCH   1  11
TORSDOF 6
