REMARK  9 active torsions:
REMARK  status: ('A' for Active; 'I' for Inactive)
REMARK    1  A    between atoms: C_1  and  C_2 
REMARK    2  A    between atoms: C_1  and  S_9 
REMARK    3  A    between atoms: C_2  and  C_3 
REMARK    4  A    between atoms: C_3  and  C_4 
REMARK    5  A    between atoms: C_4  and  C_5 
REMARK    6  A    between atoms: C_5  and  C_6 
REMARK    7  A    between atoms: C_6  and  C_7 
REMARK    8  A    between atoms: C_7  and  C_8 
REMARK    9  A    between atoms: S_9  and  O_11 
ROOT
HETATM    1  C   UNL     1       0.675   2.634  -1.640  1.00  0.00     0.384 C 
HETATM    2  F   UNL     1       1.213   3.808  -2.075  1.00  0.00    -0.192 F 
HETATM    3  F   UNL     1       1.306   1.689  -2.392  1.00  0.00    -0.192 F 
ENDROOT
BRANCH   1   4
HETATM    4  C   UNL     1       1.091   2.377  -0.205  1.00  0.00     0.385 C 
HETATM    5  F   UNL     1       0.675   3.447   0.543  1.00  0.00    -0.192 F 
HETATM    6  F   UNL     1       2.462   2.449  -0.157  1.00  0.00    -0.192 F 
BRANCH   4   7
HETATM    7  C   UNL     1       0.672   1.094   0.520  1.00  0.00     0.394 C 
HETATM    8  F   UNL     1      -0.666   1.075   0.737  1.00  0.00    -0.191 F 
HETATM    9  F   UNL     1       1.193   1.249   1.802  1.00  0.00    -0.191 F 
BRANCH   7  10
HETATM   10  C   UNL     1       1.208  -0.245   0.029  1.00  0.00     0.424 C 
HETATM   11  F   UNL     1       1.256  -1.097   1.113  1.00  0.00    -0.179 F 
HETATM   12  F   UNL     1       2.507  -0.119  -0.374  1.00  0.00    -0.179 F 
BRANCH  10  13
HETATM   13  S   UNL     1       0.186  -1.075  -1.254  1.00  0.00     0.174 S 
HETATM   14  O   UNL     1       0.571  -2.466  -1.392  1.00  0.00    -0.597 OA
HETATM   15  O   UNL     1       0.011  -0.264  -2.433  1.00  0.00    -0.597 OA
BRANCH  13  16
HETATM   16  O   UNL     1      -1.254  -1.131  -0.523  1.00  0.00    -0.291 OA
HETATM   17  H   UNL     1      -1.685  -1.985  -0.750  1.00  0.00     0.232 HD
ENDBRANCH  13  16
ENDBRANCH  10  13
ENDBRANCH   7  10
ENDBRANCH   4   7
ENDBRANCH   1   4
BRANCH   1  18
HETATM   18  C   UNL     1      -0.824   2.653  -1.921  1.00  0.00     0.384 C 
HETATM   19  F   UNL     1      -1.043   2.496  -3.255  1.00  0.00    -0.192 F 
HETATM   20  F   UNL     1      -1.381   1.548  -1.349  1.00  0.00    -0.192 F 
BRANCH  18  21
HETATM   21  C   UNL     1      -1.615   3.865  -1.449  1.00  0.00     0.387 C 
HETATM   22  F   UNL     1      -2.946   3.586  -1.645  1.00  0.00    -0.192 F 
HETATM   23  F   UNL     1      -1.492   3.970  -0.093  1.00  0.00    -0.192 F 
BRANCH  21  24
HETATM   24  C   UNL     1      -1.330   5.213  -2.086  1.00  0.00     0.409 C 
HETATM   25  F   UNL     1      -2.202   6.129  -1.552  1.00  0.00    -0.189 F 
HETATM   26  F   UNL     1      -0.096   5.662  -1.730  1.00  0.00    -0.189 F 
BRANCH  24  27
HETATM   27  C   UNL     1      -1.486   5.199  -3.597  1.00  0.00     0.461 C 
HETATM   28  F   UNL     1      -2.671   4.680  -3.986  1.00  0.00    -0.165 F 
HETATM   29  F   UNL     1      -1.406   6.447  -4.118  1.00  0.00    -0.165 F 
HETATM   30  F   UNL     1      -0.508   4.478  -4.192  1.00  0.00    -0.165 F 
ENDBRANCH  24  27
ENDBRANCH  21  24
ENDBRANCH  18  21
ENDBRANCH   1  18
TORSDOF 9
