REMARK  10 active torsions:
REMARK  status: ('A' for Active; 'I' for Inactive)
REMARK    1  A    between atoms: C_1  and  C_2 
REMARK    2  A    between atoms: C_1  and  O_12 
REMARK    3  A    between atoms: C_2  and  C_3 
REMARK    4  A    between atoms: C_3  and  C_4 
REMARK    5  A    between atoms: C_4  and  C_5 
REMARK    6  A    between atoms: C_5  and  C_6 
REMARK    7  A    between atoms: C_6  and  C_7 
REMARK    8  A    between atoms: C_7  and  C_8 
REMARK    9  A    between atoms: C_8  and  C_9 
REMARK   10  A    between atoms: C_9  and  C_10 
ROOT
HETATM    1  C   UNL     1      -2.475   0.005   0.198  1.00  0.00     0.384 C 
HETATM    2  F   UNL     1      -3.349   0.113  -0.845  1.00  0.00    -0.192 F 
HETATM    3  F   UNL     1      -1.770  -1.137  -0.095  1.00  0.00    -0.192 F 
ENDROOT
BRANCH   1   4
HETATM    4  C   UNL     1      -1.490   1.171   0.151  1.00  0.00     0.385 C 
HETATM    5  F   UNL     1      -2.200   2.334   0.209  1.00  0.00    -0.192 F 
HETATM    6  F   UNL     1      -0.917   1.177  -1.091  1.00  0.00    -0.192 F 
BRANCH   4   7
HETATM    7  C   UNL     1      -0.377   1.202   1.196  1.00  0.00     0.388 C 
HETATM    8  F   UNL     1      -0.954   1.341   2.426  1.00  0.00    -0.192 F 
HETATM    9  F   UNL     1       0.352   2.346   1.026  1.00  0.00    -0.192 F 
BRANCH   7  10
HETATM   10  C   UNL     1       0.561  -0.001   1.206  1.00  0.00     0.396 C 
HETATM   11  F   UNL     1      -0.149  -1.151   1.395  1.00  0.00    -0.187 F 
HETATM   12  F   UNL     1       1.381   0.081   2.298  1.00  0.00    -0.187 F 
BRANCH  10  13
HETATM   13  C   UNL     1       1.372  -0.066  -0.080  1.00  0.00     0.222 C 
HETATM   14  O   UNL     1       2.415   0.548  -0.272  1.00  0.00    -0.645 OA
BRANCH  13  15
HETATM   15  O   UNL     1       0.847  -0.872  -1.040  1.00  0.00    -0.772 OA
HETATM   16  H   UNL     1       0.051  -1.395  -0.799  1.00  0.00     0.167 HD
ENDBRANCH  13  15
ENDBRANCH  10  13
ENDBRANCH   7  10
ENDBRANCH   4   7
ENDBRANCH   1   4
BRANCH   1  17
HETATM   17  C   UNL     1      -3.277  -0.203   1.480  1.00  0.00     0.384 C 
HETATM   18  F   UNL     1      -3.981  -1.369   1.377  1.00  0.00    -0.192 F 
HETATM   19  F   UNL     1      -2.401  -0.434   2.501  1.00  0.00    -0.192 F 
BRANCH  17  20
HETATM   20  C   UNL     1      -4.246   0.904   1.887  1.00  0.00     0.384 C 
HETATM   21  F   UNL     1      -4.781   0.600   3.106  1.00  0.00    -0.192 F 
HETATM   22  F   UNL     1      -3.524   2.042   2.114  1.00  0.00    -0.192 F 
BRANCH  20  23
HETATM   23  C   UNL     1      -5.388   1.225   0.928  1.00  0.00     0.387 C 
HETATM   24  F   UNL     1      -6.114   2.258   1.456  1.00  0.00    -0.192 F 
HETATM   25  F   UNL     1      -4.844   1.743  -0.215  1.00  0.00    -0.192 F 
BRANCH  23  26
HETATM   26  C   UNL     1      -6.342   0.104   0.554  1.00  0.00     0.409 C 
HETATM   27  F   UNL     1      -7.243   0.588  -0.358  1.00  0.00    -0.189 F 
HETATM   28  F   UNL     1      -5.669  -0.878  -0.107  1.00  0.00    -0.189 F 
BRANCH  26  29
HETATM   29  C   UNL     1      -7.094  -0.463   1.745  1.00  0.00     0.461 C 
HETATM   30  F   UNL     1      -7.757   0.491   2.433  1.00  0.00    -0.165 F 
HETATM   31  F   UNL     1      -8.008  -1.386   1.358  1.00  0.00    -0.165 F 
HETATM   32  F   UNL     1      -6.266  -1.086   2.611  1.00  0.00    -0.165 F 
ENDBRANCH  26  29
ENDBRANCH  23  26
ENDBRANCH  20  23
ENDBRANCH  17  20
ENDBRANCH   1  17
TORSDOF 10
