REMARK  4 active torsions:
REMARK  status: ('A' for Active; 'I' for Inactive)
REMARK    1  A    between atoms: C_1  and  C_3 
REMARK    2  A    between atoms: N_2  and  C_4 
REMARK       I    between atoms: C_5  and  N_6 
REMARK    3  A    between atoms: C_5  and  C_16 
REMARK    4  A    between atoms: N_6  and  C_11 
ROOT
HETATM    1  C   UNL     1      -1.501  -0.203  -0.114  1.00  0.00     0.083 A 
HETATM    2  C   UNL     1      -0.606  -1.287  -0.097  1.00  0.00     0.118 A 
HETATM    3  C   UNL     1      -0.955   1.104  -0.114  1.00  0.00     0.048 A 
HETATM    4  C   UNL     1       0.783  -1.053  -0.065  1.00  0.00     0.039 A 
HETATM    5  C   UNL     1       0.422   1.345  -0.096  1.00  0.00     0.035 A 
HETATM    6  C   UNL     1       1.288   0.252  -0.063  1.00  0.00     0.032 A 
ENDROOT
BRANCH   5   7
HETATM    7  N   UNL     1       0.994   2.635  -0.137  1.00  0.00    -0.327 N 
HETATM    8  C   UNL     1       0.317   3.846  -0.182  1.00  0.00     0.225 C 
HETATM    9  O   UNL     1      -0.899   3.982  -0.096  1.00  0.00    -0.273 OA
HETATM   10  H   UNL     1       2.006   2.679  -0.138  1.00  0.00     0.169 HD
BRANCH   8  11
HETATM   11  C   UNL     1       1.243   5.055  -0.342  1.00  0.00     0.070 C 
HETATM   12  C   UNL     1       1.998   4.996  -1.670  1.00  0.00     0.019 C 
HETATM   13  C   UNL     1       0.437   6.353  -0.261  1.00  0.00     0.019 C 
ENDBRANCH   8  11
ENDBRANCH   5   7
BRANCH   1  14
HETATM   14  C   UNL     1      -3.006  -0.335  -0.139  1.00  0.00     0.419 C 
HETATM   15  F   UNL     1      -3.472  -0.889  -1.289  1.00  0.00    -0.166 F 
HETATM   16  F   UNL     1      -3.493  -1.061   0.902  1.00  0.00    -0.166 F 
HETATM   17  F   UNL     1      -3.646   0.869  -0.050  1.00  0.00    -0.166 F 
ENDBRANCH   1  14
BRANCH   2  18
HETATM   18  N   UNL     1      -1.051  -2.695  -0.125  1.00  0.00    -0.115 N 
HETATM   19  O   UNL     1      -0.192  -3.568   0.064  1.00  0.00    -0.532 OA
HETATM   20  O   UNL     1      -2.239  -2.936  -0.351  1.00  0.00    -0.532 OA
ENDBRANCH   2  18
TORSDOF 4
