REMARK  7 active torsions:
REMARK  status: ('A' for Active; 'I' for Inactive)
REMARK    1  A    between atoms: C_1  and  C_2 
REMARK    2  A    between atoms: C_1  and  C_7 
REMARK    3  A    between atoms: C_2  and  C_3 
REMARK    4  A    between atoms: C_3  and  C_4 
REMARK    5  A    between atoms: C_3  and  O_6 
REMARK    6  A    between atoms: C_3  and  C_16 
REMARK    7  A    between atoms: C_16  and  N_17 
ROOT
HETATM    1  C   UNL     1      -1.083   1.163  -0.119  1.00  0.00     0.083 C 
ENDROOT
BRANCH   1   2
HETATM    2  C   UNL     1       0.485   1.301  -0.022  1.00  0.00     0.045 C 
BRANCH   2   3
HETATM    3  C   UNL     1       1.288   0.023   0.265  1.00  0.00     0.041 C 
BRANCH   3   4
HETATM    4  C   UNL     1       2.791   0.109   0.074  1.00  0.00    -0.058 A 
HETATM    5  C   UNL     1       3.506   1.313   0.016  1.00  0.00     0.009 A 
HETATM    6  C   UNL     1       4.895   1.309  -0.159  1.00  0.00     0.024 A 
HETATM    7  C   UNL     1       5.581   0.102  -0.262  1.00  0.00     0.034 A 
HETATM    8  C   UNL     1       4.893  -1.104  -0.188  1.00  0.00     0.024 A 
HETATM    9 CL   UNL     1       7.288   0.100  -0.478  1.00  0.00    -0.084 Cl
HETATM   10  C   UNL     1       3.507  -1.098  -0.017  1.00  0.00     0.009 A 
ENDBRANCH   3   4
ENDBRANCH   2   3
ENDBRANCH   1   2
BRANCH   1  11
HETATM   11  C   UNL     1      -1.591   0.612  -1.535  1.00  0.00    -0.019 C 
HETATM   12  C   UNL     1      -1.129  -0.845  -1.795  1.00  0.00     0.018 C 
HETATM   13  C   UNL     1      -3.134   0.559  -1.658  1.00  0.00     0.018 C 
HETATM   14  C   UNL     1      -1.084   1.480  -2.705  1.00  0.00     0.018 C 
ENDBRANCH   1  11
BRANCH   1  15
HETATM   15  O   UNL     1      -1.454   0.231   0.910  1.00  0.00    -0.387 OA
HETATM   16  H   UNL     1      -2.430   0.207   0.960  1.00  0.00     0.210 HD
ENDBRANCH   1  15
BRANCH   1  17
HETATM   17  C   UNL     1      -1.607   2.591   0.282  1.00  0.00     0.190 C 
BRANCH  17  18
HETATM   18  N   UNL     1      -3.025   2.843   0.354  1.00  0.00    -0.259 N 
HETATM   19  N   UNL     1      -3.873   2.013   0.994  1.00  0.00    -0.165 NA
HETATM   20  C   UNL     1      -5.036   2.654   0.834  1.00  0.00     0.256 A 
HETATM   21  N   UNL     1      -4.958   3.848   0.175  1.00  0.00    -0.234 NA
HETATM   22  C   UNL     1      -3.679   3.954  -0.091  1.00  0.00     0.230 A 
ENDBRANCH  17  18
ENDBRANCH   1  17
TORSDOF 7
