REMARK  10 active torsions:
REMARK  status: ('A' for Active; 'I' for Inactive)
REMARK    1  A    between atoms: P_1  and  O_2 
REMARK    2  A    between atoms: P_1  and  O_3 
REMARK    3  A    between atoms: P_1  and  S_4 
REMARK    4  A    between atoms: O_2  and  C_9 
REMARK    5  A    between atoms: O_3  and  C_6 
REMARK    6  A    between atoms: S_4  and  C_12 
REMARK    7  A    between atoms: C_12  and  C_13 
REMARK    8  A    between atoms: C_13  and  N_14 
REMARK    9  A    between atoms: N_14  and  S_15 
REMARK   10  A    between atoms: S_15  and  C_18 
ROOT
HETATM    1  C   UNL     1       4.140  -1.300  -0.947  1.00  0.00     0.099 C 
ENDROOT
BRANCH   1   2
HETATM    2  S   UNL     1       3.197  -0.048  -0.041  1.00  0.00    -0.073 SA
BRANCH   2   3
HETATM    3  P   UNL     1       1.077  -0.048  -0.041  1.00  0.00     0.248 P 
HETATM    4  S   UNL     1      -0.820  -0.048  -0.041  1.00  0.00    -0.026 SA
BRANCH   3   5
HETATM    5  O   UNL     1       1.163   1.337   0.888  1.00  0.00    -0.322 OA
BRANCH   5   6
HETATM    6  C   UNL     1       1.016   1.263   2.316  1.00  0.00     0.122 C 
HETATM    7  C   UNL     1       2.131   0.476   3.001  1.00  0.00     0.039 C 
HETATM    8  C   UNL     1       0.993   2.691   2.847  1.00  0.00     0.039 C 
ENDBRANCH   5   6
ENDBRANCH   3   5
BRANCH   3   9
HETATM    9  O   UNL     1       1.090   0.624  -1.581  1.00  0.00    -0.322 OA
BRANCH   9  10
HETATM   10  C   UNL     1       1.609  -0.076  -2.719  1.00  0.00     0.122 C 
HETATM   11  C   UNL     1       1.340  -1.583  -2.724  1.00  0.00     0.039 C 
HETATM   12  C   UNL     1       1.120   0.543  -4.024  1.00  0.00     0.039 C 
ENDBRANCH   9  10
ENDBRANCH   3   9
ENDBRANCH   2   3
ENDBRANCH   1   2
BRANCH   1  13
HETATM   13  C   UNL     1       5.630  -0.901  -1.102  1.00  0.00     0.115 C 
BRANCH  13  14
HETATM   14  N   UNL     1       6.160  -1.449  -2.395  1.00  0.00    -0.215 NA
HETATM   15  H   UNL     1       5.810  -0.901  -3.185  1.00  0.00     0.140 HD
BRANCH  14  16
HETATM   16  S   UNL     1       7.862  -1.477  -2.515  1.00  0.00     0.241 S 
HETATM   17  O   UNL     1       8.284  -0.103  -2.632  1.00  0.00    -0.206 OA
HETATM   18  O   UNL     1       8.371  -2.355  -1.480  1.00  0.00    -0.206 OA
BRANCH  16  19
HETATM   19  C   UNL     1       8.098  -2.273  -4.090  1.00  0.00     0.074 A 
HETATM   20  C   UNL     1       8.407  -1.510  -5.222  1.00  0.00     0.025 A 
HETATM   21  C   UNL     1       8.604  -2.148  -6.450  1.00  0.00     0.002 A 
HETATM   22  C   UNL     1       8.505  -3.537  -6.541  1.00  0.00     0.000 A 
HETATM   23  C   UNL     1       8.217  -4.295  -5.405  1.00  0.00     0.002 A 
HETATM   24  C   UNL     1       8.017  -3.667  -4.175  1.00  0.00     0.025 A 
ENDBRANCH  16  19
ENDBRANCH  14  16
ENDBRANCH  13  14
ENDBRANCH   1  13
TORSDOF 10
