REMARK  2 active torsions:
REMARK  status: ('A' for Active; 'I' for Inactive)
REMARK    1  A    between atoms: C_6  and  O_10 
REMARK    2  A    between atoms: O_10  and  C_13 
REMARK       I    between atoms: C_13  and  N_15 
ROOT
HETATM    1  O   UNL     1      -1.613   0.851   0.003  1.00  0.00    -0.309 OA
HETATM    2  C   UNL     1      -2.269  -0.447   0.024  1.00  0.00     0.169 A 
HETATM    3  O   UNL     1      -1.330  -1.545   0.003  1.00  0.00    -0.312 OA
HETATM    4  C   UNL     1      -0.145  -0.878  -0.002  1.00  0.00     0.108 A 
HETATM    5  C   UNL     1      -0.293   0.494  -0.002  1.00  0.00     0.140 A 
HETATM    6  C   UNL     1       0.820   1.325  -0.004  1.00  0.00     0.117 A 
HETATM    7  C   UNL     1       2.082   0.717  -0.003  1.00  0.00     0.040 A 
HETATM    8  C   UNL     1       2.213  -0.683  -0.004  1.00  0.00     0.006 A 
HETATM    9  C   UNL     1       1.087  -1.496  -0.004  1.00  0.00     0.040 A 
HETATM   10  C   UNL     1      -3.167  -0.584  -1.206  1.00  0.00     0.079 C 
HETATM   11  C   UNL     1      -3.100  -0.575   1.302  1.00  0.00     0.079 C 
ENDROOT
BRANCH   6  12
HETATM   12  O   UNL     1       0.620   2.729  -0.005  1.00  0.00    -0.259 OA
BRANCH  12  13
HETATM   13  C   UNL     1       1.651   3.676  -0.013  1.00  0.00     0.365 C 
HETATM   14  O   UNL     1       2.853   3.438  -0.022  1.00  0.00    -0.238 OA
HETATM   15  N   UNL     1       1.148   4.949  -0.011  1.00  0.00    -0.341 N 
HETATM   16  C   UNL     1       2.005   6.109  -0.018  1.00  0.00     0.151 C 
HETATM   17  H   UNL     1       0.143   5.053  -0.009  1.00  0.00     0.164 HD
ENDBRANCH  12  13
ENDBRANCH   6  12
TORSDOF 2
