REMARK  6 active torsions:
REMARK  status: ('A' for Active; 'I' for Inactive)
REMARK    1  A    between atoms: C_1  and  N_5 
REMARK    2  A    between atoms: C_2  and  N_4 
REMARK    3  A    between atoms: C_3  and  N_9 
REMARK    4  A    between atoms: C_8  and  C_12 
REMARK    5  A    between atoms: N_9  and  C_15 
REMARK    6  A    between atoms: C_15  and  C_19 
ROOT
HETATM    1  C   UNL     1      -0.584   1.246   0.636  1.00  0.00     0.132 C 
HETATM    2  C   UNL     1      -0.765  -1.023  -0.028  1.00  0.00     0.132 C 
HETATM    3  C   UNL     1      -1.444   0.196   0.258  1.00  0.00     0.095 C 
HETATM    4  C   UNL     1       0.653  -1.116  -0.063  1.00  0.00     0.046 C 
HETATM    5  C   UNL     1       0.828   1.163   0.580  1.00  0.00     0.046 C 
HETATM    6  C   UNL     1       1.478  -0.019   0.210  1.00  0.00    -0.046 C 
ENDROOT
BRANCH   3   7
HETATM    7  N   UNL     1      -2.833   0.283   0.181  1.00  0.00    -0.382 N 
HETATM    8  H   UNL     1      -3.275  -0.598  -0.116  1.00  0.00     0.160 HD
BRANCH   7   9
HETATM    9  C   UNL     1      -3.644   1.434  -0.245  1.00  0.00     0.077 C 
HETATM   10  C   UNL     1      -5.101   1.093   0.112  1.00  0.00     0.032 C 
BRANCH   9  11
HETATM   11  C   UNL     1      -3.561   1.690  -1.761  1.00  0.00     0.020 C 
HETATM   12  C   UNL     1      -2.281   2.369  -2.225  1.00  0.00     0.007 C 
ENDBRANCH   9  11
ENDBRANCH   7   9
ENDBRANCH   3   7
BRANCH   1  13
HETATM   13  N   UNL     1      -1.089   2.472   1.227  1.00  0.00    -0.113 N 
HETATM   14  O   UNL     1      -0.812   3.531   0.645  1.00  0.00    -0.532 OA
HETATM   15  O   UNL     1      -1.694   2.381   2.304  1.00  0.00    -0.532 OA
ENDBRANCH   1  13
BRANCH   2  16
HETATM   16  N   UNL     1      -1.504  -2.277  -0.312  1.00  0.00    -0.113 N 
HETATM   17  O   UNL     1      -0.851  -3.331  -0.365  1.00  0.00    -0.532 OA
HETATM   18  O   UNL     1      -2.729  -2.219  -0.488  1.00  0.00    -0.532 OA
ENDBRANCH   2  16
BRANCH   6  19
HETATM   19  C   UNL     1       3.012  -0.079   0.096  1.00  0.00    -0.024 C 
HETATM   20  C   UNL     1       3.431   0.679  -1.181  1.00  0.00     0.019 C 
HETATM   21  C   UNL     1       3.692   0.579   1.318  1.00  0.00     0.019 C 
HETATM   22  C   UNL     1       3.573  -1.516  -0.004  1.00  0.00     0.019 C 
ENDBRANCH   6  19
TORSDOF 6
