REMARK  7 active torsions:
REMARK  status: ('A' for Active; 'I' for Inactive)
REMARK    1  A    between atoms: P_2  and  O_3 
REMARK    2  A    between atoms: P_2  and  O_4 
REMARK    3  A    between atoms: P_2  and  O_5 
REMARK    4  A    between atoms: O_3  and  C_6 
REMARK    5  A    between atoms: O_4  and  C_8 
REMARK    6  A    between atoms: O_5  and  C_10 
REMARK    7  A    between atoms: C_10  and  C_11 
ROOT
HETATM    1  S   UNL     1       0.962  -0.083   0.040  1.00  0.00    -0.007 SA
HETATM    2  P   UNL     1       2.859  -0.083   0.040  1.00  0.00     0.330 P 
ENDROOT
BRANCH   2   3
HETATM    3  O   UNL     1       2.950   1.378   0.816  1.00  0.00    -0.314 OA
BRANCH   3   4
HETATM    4  C   UNL     1       2.892   2.567   0.026  1.00  0.00     0.174 C 
HETATM    5  C   UNL     1       2.922   3.760   0.960  1.00  0.00     0.034 C 
ENDBRANCH   3   4
ENDBRANCH   2   3
BRANCH   2   6
HETATM    6  O   UNL     1       3.016  -1.137   1.321  1.00  0.00    -0.314 OA
BRANCH   6   7
HETATM    7  C   UNL     1       2.407  -2.433   1.274  1.00  0.00     0.174 C 
HETATM    8  C   UNL     1       3.156  -3.437   2.123  1.00  0.00     0.034 C 
ENDBRANCH   6   7
ENDBRANCH   2   6
BRANCH   2   9
HETATM    9  O   UNL     1       4.589  -0.083   0.040  1.00  0.00    -0.288 OA
BRANCH   9  10
HETATM   10  C   UNL     1       5.420   0.607   0.975  1.00  0.00     0.281 C 
HETATM   11 CL   UNL     1       7.061   0.555   0.150  1.00  0.00    -0.090 Cl
BRANCH  10  12
HETATM   12  C   UNL     1       5.543   0.123   2.464  1.00  0.00     0.227 C 
HETATM   13 CL   UNL     1       6.015  -1.603   2.592  1.00  0.00    -0.080 Cl
HETATM   14 CL   UNL     1       6.855   1.074   3.327  1.00  0.00    -0.080 Cl
HETATM   15 CL   UNL     1       4.093   0.436   3.487  1.00  0.00    -0.080 Cl
ENDBRANCH  10  12
ENDBRANCH   9  10
ENDBRANCH   2   9
TORSDOF 7
