REMARK  4 active torsions:
REMARK  status: ('A' for Active; 'I' for Inactive)
REMARK    1  A    between atoms: C_1  and  O_4 
REMARK    2  A    between atoms: P_3  and  O_4 
REMARK    3  A    between atoms: P_3  and  O_10 
REMARK    4  A    between atoms: P_3  and  O_11 
ROOT
HETATM    1  C   UNL     1      -0.529   1.340  -0.006  1.00  0.00     0.196 A 
HETATM    2  N   UNL     1      -1.031   0.119  -0.272  1.00  0.00    -0.209 NA
HETATM    3  C   UNL     1      -0.149  -0.902  -0.378  1.00  0.00     0.150 A 
HETATM    4  C   UNL     1       0.833   1.571   0.197  1.00  0.00     0.089 A 
HETATM    5  C   UNL     1       1.718   0.498   0.106  1.00  0.00     0.055 A 
HETATM    6  C   UNL     1       1.224  -0.767  -0.198  1.00  0.00     0.076 A 
HETATM    7 CL   UNL     1      -0.907  -2.399  -0.758  1.00  0.00    -0.060 Cl
HETATM    8 CL   UNL     1       1.454   3.138   0.557  1.00  0.00    -0.080 Cl
HETATM    9 CL   UNL     1       2.331  -2.080  -0.327  1.00  0.00    -0.081 Cl
ENDROOT
BRANCH   1  10
HETATM   10  O   UNL     1      -1.364   2.437   0.004  1.00  0.00    -0.251 OA
BRANCH  10  11
HETATM   11  P   UNL     1      -3.093   2.473   0.004  1.00  0.00     0.334 P 
HETATM   12  S   UNL     1      -3.176   1.857  -1.926  1.00  0.00    -0.007 SA
BRANCH  11  13
HETATM   13  O   UNL     1      -3.133   1.385   1.233  1.00  0.00    -0.319 OA
HETATM   14  C   UNL     1      -3.677   0.089   1.087  1.00  0.00     0.212 C 
ENDBRANCH  11  13
BRANCH  11  15
HETATM   15  O   UNL     1      -4.823   2.508   0.004  1.00  0.00    -0.319 OA
HETATM   16  C   UNL     1      -5.381   3.798  -0.185  1.00  0.00     0.212 C 
ENDBRANCH  11  15
ENDBRANCH  10  11
ENDBRANCH   1  10
TORSDOF 4
