REMARK  3 active torsions:
REMARK  status: ('A' for Active; 'I' for Inactive)
REMARK    1  A    between atoms: C_1  and  C_2 
REMARK       I    between atoms: C_2  and  N_5 
REMARK    2  A    between atoms: N_3  and  O_7 
REMARK       I    between atoms: N_5  and  C_9 
REMARK       I    between atoms: C_9  and  N_11 
REMARK    3  A    between atoms: N_11  and  C_13 
ROOT
HETATM    1  C   UNL     1       1.610   0.176   0.502  1.00  0.00     0.231 C 
HETATM    2  N   UNL     1       1.351   1.449   0.397  1.00  0.00    -0.117 NA
HETATM    3  C   UNL     1       2.918  -0.284   0.074  1.00  0.00     0.128 C 
HETATM    4  N   UNL     1       3.969  -0.650  -0.268  1.00  0.00    -0.189 NA
ENDROOT
BRANCH   1   5
HETATM    5  C   UNL     1       0.660  -0.800   1.136  1.00  0.00     0.291 C 
HETATM    6  N   UNL     1      -0.743  -0.819   1.001  1.00  0.00    -0.273 N 
HETATM    7  C   UNL     1      -1.882  -0.390   0.359  1.00  0.00     0.323 C 
HETATM    8  H   UNL     1      -1.073  -1.504   1.673  1.00  0.00     0.173 HD
HETATM    9  N   UNL     1      -1.890   0.367  -0.746  1.00  0.00    -0.343 N 
HETATM   10  O   UNL     1      -2.966  -0.764   0.816  1.00  0.00    -0.247 OA
HETATM   11  H   UNL     1      -2.834   0.640  -1.004  1.00  0.00     0.164 HD
HETATM   12  O   UNL     1       1.176  -1.667   1.847  1.00  0.00    -0.265 OA
BRANCH   9  13
HETATM   13  C   UNL     1      -0.803   1.046  -1.374  1.00  0.00     0.120 C 
HETATM   14  C   UNL     1      -1.109   1.698  -2.702  1.00  0.00     0.026 C 
ENDBRANCH   9  13
ENDBRANCH   1   5
BRANCH   2  15
HETATM   15  O   UNL     1       2.397   2.168  -0.225  1.00  0.00    -0.260 OA
HETATM   16  C   UNL     1       1.881   3.320  -0.889  1.00  0.00     0.240 C 
ENDBRANCH   2  15
TORSDOF 3
