REMARK  3 active torsions:
REMARK  status: ('A' for Active; 'I' for Inactive)
REMARK    1  A    between atoms: C_1  and  C_2 
REMARK    2  A    between atoms: C_7  and  N_9 
REMARK    3  A    between atoms: N_9  and  C_12 
ROOT
HETATM    1  C   UNL     1      -0.654   1.357   0.113  1.00  0.00     0.059 A 
HETATM    2  N   UNL     1      -1.385   0.229   0.068  1.00  0.00    -0.067 NA
HETATM    3  C   UNL     1       0.723   1.290   0.097  1.00  0.00     0.055 A 
HETATM    4  C   UNL     1      -0.780  -0.962   0.008  1.00  0.00     0.727 A 
HETATM    5  C   UNL     1       1.291   0.032   0.023  1.00  0.00     0.051 A 
HETATM    6  N   UNL     1       0.553  -1.097  -0.016  1.00  0.00    -0.068 NA
HETATM    7  C   UNL     1       2.781  -0.134  -0.011  1.00  0.00     0.071 C 
ENDROOT
BRANCH   4   8
HETATM    8  N   UNL     1      -1.528  -2.137  -0.028  1.00  0.00    -0.188 N 
HETATM    9  H   UNL     1      -0.910  -2.932  -0.073  1.00  0.00     0.184 HD
BRANCH   8  10
HETATM   10  C   UNL     1      -2.908  -2.380  -0.087  1.00  0.00     0.049 A 
HETATM   11  C   UNL     1      -3.366  -3.707  -0.105  1.00  0.00     0.030 A 
HETATM   12  C   UNL     1      -4.733  -4.005  -0.162  1.00  0.00     0.002 A 
HETATM   13  C   UNL     1      -5.672  -2.978  -0.196  1.00  0.00     0.000 A 
HETATM   14  C   UNL     1      -5.243  -1.658  -0.169  1.00  0.00     0.002 A 
HETATM   15  C   UNL     1      -3.876  -1.367  -0.112  1.00  0.00     0.030 A 
ENDBRANCH   8  10
ENDBRANCH   4   8
BRANCH   1  16
HETATM   16  C   UNL     1      -1.447   2.639   0.192  1.00  0.00     0.038 A 
HETATM   17  C   UNL     1      -1.809   3.326  -1.107  1.00  0.00     0.011 A 
HETATM   18  C   UNL     1      -0.913   4.011  -0.120  1.00  0.00     0.011 A 
ENDBRANCH   1  16
TORSDOF 3
