REMARK  7 active torsions:
REMARK  status: ('A' for Active; 'I' for Inactive)
REMARK    1  A    between atoms: C_1  and  C_2 
REMARK    2  A    between atoms: C_1  and  O_5 
REMARK    3  A    between atoms: C_2  and  O_6 
REMARK    4  A    between atoms: O_5  and  C_22 
REMARK    5  A    between atoms: O_6  and  C_7 
REMARK    6  A    between atoms: C_12  and  O_13 
REMARK    7  A    between atoms: O_13  and  C_16 
ROOT
HETATM    1  C   UNL     1      -1.227   1.035  -0.745  1.00  0.00     0.271 C 
HETATM    2  C   UNL     1      -1.614   2.256  -1.462  1.00  0.00    -0.091 C 
HETATM    3  C   UNL     1      -1.956   3.219  -2.096  1.00  0.00     0.014 C 
ENDROOT
BRANCH   1   4
HETATM    4  O   UNL     1       0.188   0.844  -0.873  1.00  0.00    -0.307 OA
BRANCH   4   5
HETATM    5  C   UNL     1       0.907  -0.117  -0.240  1.00  0.00     0.289 C 
HETATM    6  O   UNL     1       2.135  -0.070  -0.310  1.00  0.00    -0.262 OA
BRANCH   5   7
HETATM    7  C   UNL     1       0.167  -1.217   0.545  1.00  0.00     0.224 C 
HETATM    8  C   UNL     1      -0.612  -2.147  -0.388  1.00  0.00     0.051 C 
BRANCH   7   9
HETATM    9  O   UNL     1       1.191  -1.988   1.227  1.00  0.00    -0.336 OA
BRANCH   9  10
HETATM   10  C   UNL     1       0.731  -2.980   2.047  1.00  0.00     0.070 A 
HETATM   11  C   UNL     1       1.274  -4.252   1.879  1.00  0.00     0.039 A 
HETATM   12  C   UNL     1       0.786  -5.324   2.635  1.00  0.00     0.040 A 
HETATM   13  C   UNL     1      -0.235  -5.136   3.580  1.00  0.00     0.078 A 
HETATM   14  C   UNL     1      -0.728  -3.845   3.764  1.00  0.00     0.040 A 
HETATM   15  C   UNL     1      -0.239  -2.769   3.016  1.00  0.00     0.039 A 
BRANCH  13  16
HETATM   16  O   UNL     1      -0.629  -6.294   4.212  1.00  0.00    -0.290 OA
BRANCH  16  17
HETATM   17  C   UNL     1      -1.666  -6.359   5.136  1.00  0.00     0.209 A 
HETATM   18  N   UNL     1      -2.165  -5.250   5.725  1.00  0.00    -0.233 NA
HETATM   19  C   UNL     1      -3.169  -5.415   6.619  1.00  0.00     0.143 A 
HETATM   20  C   UNL     1      -3.687  -6.650   6.974  1.00  0.00     0.054 A 
HETATM   21  C   UNL     1      -3.150  -7.786   6.385  1.00  0.00     0.072 A 
HETATM   22 CL   UNL     1      -4.962  -6.768   8.115  1.00  0.00    -0.083 Cl
HETATM   23  C   UNL     1      -2.125  -7.636   5.454  1.00  0.00     0.171 A 
HETATM   24  F   UNL     1      -1.601  -8.727   4.879  1.00  0.00    -0.201 F 
ENDBRANCH  16  17
ENDBRANCH  13  16
ENDBRANCH   9  10
ENDBRANCH   7   9
ENDBRANCH   5   7
ENDBRANCH   4   5
ENDBRANCH   1   4
TORSDOF 7
