REMARK  4 active torsions:
REMARK  status: ('A' for Active; 'I' for Inactive)
REMARK    1  A    between atoms: C_1  and  S_4 
REMARK       I    between atoms: C_1  and  N_3 
REMARK    2  A    between atoms: N_3  and  C_5 
REMARK    3  A    between atoms: N_3  and  C_11 
REMARK    4  A    between atoms: S_4  and  C_13 
ROOT
HETATM    1  C   UNL     1       1.064  -0.289  -0.018  1.00  0.00     0.282 C 
HETATM    2  O   UNL     1       0.301   0.174  -0.856  1.00  0.00    -0.260 OA
HETATM    3  N   UNL     1       2.457  -0.117  -0.021  1.00  0.00    -0.339 N 
ENDROOT
BRANCH   3   4
HETATM    4  C   UNL     1       3.091   0.949  -0.851  1.00  0.00     0.088 C 
HETATM    5  C   UNL     1       3.455   2.194  -0.019  1.00  0.00     0.025 C 
HETATM    6  C   UNL     1       2.324   3.206   0.079  1.00  0.00     0.002 C 
HETATM    7  C   UNL     1       1.906   3.675  -1.306  1.00  0.00     0.000 C 
HETATM    8  C   UNL     1       1.440   2.510  -2.167  1.00  0.00     0.002 C 
HETATM    9  C   UNL     1       2.432   1.339  -2.198  1.00  0.00     0.025 C 
ENDBRANCH   3   4
BRANCH   3  10
HETATM   10  C   UNL     1       3.295  -0.784   1.003  1.00  0.00     0.122 C 
HETATM   11  C   UNL     1       4.796  -0.863   0.750  1.00  0.00     0.026 C 
ENDBRANCH   3  10
BRANCH   1  12
HETATM   12  S   UNL     1       0.367  -1.245   1.298  1.00  0.00    -0.070 SA
BRANCH  12  13
HETATM   13  C   UNL     1      -1.397  -0.936   0.987  1.00  0.00     0.079 C 
HETATM   14  C   UNL     1      -2.250  -1.704   1.981  1.00  0.00     0.016 C 
ENDBRANCH  12  13
ENDBRANCH   1  12
TORSDOF 4
