REMARK  2 active torsions:
REMARK  status: ('A' for Active; 'I' for Inactive)
REMARK    1  A    between atoms: N_1  and  C_5 
REMARK    2  A    between atoms: C_5  and  C_6 
ROOT
HETATM    1  N   UNL     1      -0.142  -0.995  -0.737  1.00  0.00    -0.221 N 
HETATM    2  C   UNL     1       0.813  -0.844   0.264  1.00  0.00     0.253 C 
HETATM    3  C   UNL     1       1.259   0.590   0.229  1.00  0.00     0.059 C 
HETATM    4  O   UNL     1      -0.687   0.282  -1.065  1.00  0.00    -0.274 OA
HETATM    5  C   UNL     1      -0.072   1.212  -0.161  1.00  0.00     0.220 C 
HETATM    6  O   UNL     1       1.244  -1.708   1.010  1.00  0.00    -0.270 OA
HETATM    7  C   UNL     1       1.767   1.090   1.574  1.00  0.00     0.027 C 
HETATM    8  C   UNL     1       2.320   0.773  -0.861  1.00  0.00     0.027 C 
ENDROOT
BRANCH   1   9
HETATM    9  C   UNL     1      -1.141  -2.055  -0.691  1.00  0.00     0.199 C 
BRANCH   9  10
HETATM   10  C   UNL     1      -0.627  -3.401  -1.159  1.00  0.00    -0.016 A 
HETATM   11  C   UNL     1      -1.196  -4.603  -0.702  1.00  0.00     0.042 A 
HETATM   12 CL   UNL     1      -2.508  -4.626   0.424  1.00  0.00    -0.084 Cl
HETATM   13  C   UNL     1      -0.727  -5.838  -1.164  1.00  0.00     0.024 A 
HETATM   14  C   UNL     1       0.301  -5.894  -2.102  1.00  0.00     0.002 A 
HETATM   15  C   UNL     1       0.856  -4.715  -2.589  1.00  0.00     0.001 A 
HETATM   16  C   UNL     1       0.390  -3.481  -2.129  1.00  0.00     0.011 A 
ENDBRANCH   9  10
ENDBRANCH   1   9
TORSDOF 2
