REMARK  0 active torsions:
REMARK  status: ('A' for Active; 'I' for Inactive)
ROOT
HETATM    1  C   UNL     1       1.263  -0.725   0.095  1.00  0.00     0.088 A 
HETATM    2  C   UNL     1       2.501  -1.441   0.184  1.00  0.00     0.103 C 
HETATM    3  N   UNL     1       3.504  -2.021   0.262  1.00  0.00    -0.191 NA
HETATM    4  C   UNL     1       0.039  -1.410   0.091  1.00  0.00     0.056 A 
HETATM    5  C   UNL     1       1.250   0.675   0.019  1.00  0.00     0.056 A 
HETATM    6 CL   UNL     1       2.706   1.609   0.001  1.00  0.00    -0.083 Cl
HETATM    7 CL   UNL     1      -0.050  -3.136   0.168  1.00  0.00    -0.083 Cl
HETATM    8  C   UNL     1      -1.171   0.683  -0.042  1.00  0.00     0.003 A 
HETATM    9  C   UNL     1       0.039   1.374  -0.048  1.00  0.00     0.025 A 
HETATM   10  C   UNL     1      -1.170  -0.709   0.024  1.00  0.00     0.025 A 
ENDROOT
TORSDOF 0
