REMARK  8 active torsions:
REMARK  status: ('A' for Active; 'I' for Inactive)
REMARK    1  A    between atoms: C_2  and  C_20 
REMARK    2  A    between atoms: C_3  and  C_13 
REMARK    3  A    between atoms: C_4  and  C_7 
REMARK    4  A    between atoms: C_5  and  C_10 
REMARK    5  A    between atoms: C_6  and  C_16 
REMARK    6  A    between atoms: C_7  and  S_9 
REMARK    7  A    between atoms: C_10  and  S_12 
REMARK    8  A    between atoms: C_16  and  C_17 
ROOT
HETATM    1  N   UNL     1      -0.576   1.254  -0.103  1.00  0.00    -0.241 NA
HETATM    2  C   UNL     1      -1.406   0.190   0.101  1.00  0.00     0.156 A 
HETATM    3  C   UNL     1       0.769   1.066  -0.157  1.00  0.00     0.114 A 
HETATM    4  C   UNL     1       1.339  -0.214  -0.068  1.00  0.00     0.059 A 
HETATM    5  C   UNL     1      -0.909  -1.125   0.142  1.00  0.00     0.062 A 
HETATM    6  C   UNL     1       0.493  -1.365   0.022  1.00  0.00    -0.024 A 
ENDROOT
BRANCH   2   7
HETATM    7  C   UNL     1      -2.882   0.523   0.315  1.00  0.00     0.435 C 
HETATM    8  F   UNL     1      -3.630   0.337  -0.808  1.00  0.00    -0.165 F 
HETATM    9  F   UNL     1      -3.474  -0.210   1.298  1.00  0.00    -0.165 F 
HETATM   10  F   UNL     1      -3.091   1.824   0.676  1.00  0.00    -0.165 F 
ENDBRANCH   2   7
BRANCH   5  11
HETATM   11  C   UNL     1      -1.838  -2.199   0.542  1.00  0.00     0.221 C 
HETATM   12  O   UNL     1      -1.728  -2.701   1.655  1.00  0.00    -0.280 OA
BRANCH  11  13
HETATM   13  S   UNL     1      -3.057  -2.678  -0.625  1.00  0.00    -0.092 SA
HETATM   14  C   UNL     1      -3.608  -4.236   0.103  1.00  0.00     0.099 C 
ENDBRANCH  11  13
ENDBRANCH   5  11
BRANCH   3  15
HETATM   15  C   UNL     1       1.627   2.320  -0.272  1.00  0.00     0.406 C 
HETATM   16  F   UNL     1       2.633   2.183  -1.184  1.00  0.00    -0.207 F 
HETATM   17  F   UNL     1       0.923   3.415  -0.686  1.00  0.00    -0.207 F 
ENDBRANCH   3  15
BRANCH   6  18
HETATM   18  C   UNL     1       1.133  -2.752   0.115  1.00  0.00     0.044 C 
BRANCH  18  19
HETATM   19  C   UNL     1       0.424  -4.054  -0.333  1.00  0.00    -0.018 C 
HETATM   20  C   UNL     1       0.050  -4.046  -1.817  1.00  0.00     0.010 C 
HETATM   21  C   UNL     1       1.344  -5.254  -0.063  1.00  0.00     0.010 C 
ENDBRANCH  18  19
ENDBRANCH   6  18
BRANCH   4  22
HETATM   22  C   UNL     1       2.801  -0.230   0.203  1.00  0.00     0.221 C 
HETATM   23  O   UNL     1       3.204   0.384   1.186  1.00  0.00    -0.280 OA
BRANCH  22  24
HETATM   24  S   UNL     1       3.885  -1.006  -0.929  1.00  0.00    -0.092 SA
HETATM   25  C   UNL     1       5.481  -0.621  -0.165  1.00  0.00     0.099 C 
ENDBRANCH  22  24
ENDBRANCH   4  22
TORSDOF 8
