REMARK  5 active torsions:
REMARK  status: ('A' for Active; 'I' for Inactive)
REMARK    1  A    between atoms: C_1  and  C_2 
REMARK    2  A    between atoms: C_1  and  C_3 
REMARK    3  A    between atoms: C_3  and  N_4 
REMARK    4  A    between atoms: C_14  and  O_15 
REMARK    5  A    between atoms: O_15  and  C_20 
ROOT
HETATM    1  C   UNL     1      -1.274  -1.287  -1.994  1.00  0.00     0.027 C 
HETATM    2  C   UNL     1      -2.064  -2.339  -2.482  1.00  0.00     0.048 C 
HETATM    3  C   UNL     1      -2.182  -2.570  -3.863  1.00  0.00     0.061 C 
HETATM    4  C   UNL     1      -0.786  -0.376  -2.971  1.00  0.00     0.017 C 
HETATM    5  C   UNL     1      -1.584  -1.719  -4.790  1.00  0.00     0.077 C 
HETATM    6 CL   UNL     1      -3.021  -3.388  -1.506  1.00  0.00    -0.084 Cl
HETATM    7  C   UNL     1      -0.947  -0.576  -4.343  1.00  0.00     0.038 C 
ENDROOT
BRANCH   1   8
HETATM    8  C   UNL     1      -0.815  -1.053  -0.550  1.00  0.00     0.213 C 
HETATM    9  O   UNL     1       0.629  -0.950  -0.627  1.00  0.00    -0.342 OA
HETATM   10  C   UNL     1       1.007   0.231   0.073  1.00  0.00     0.145 C 
HETATM   11  C   UNL     1      -0.218   1.112   0.042  1.00  0.00     0.203 C 
HETATM   12  C   UNL     1       2.215   0.838  -0.618  1.00  0.00     0.042 C 
HETATM   13  O   UNL     1      -1.333   0.233  -0.122  1.00  0.00    -0.347 OA
BRANCH   8  14
HETATM   14  C   UNL     1      -1.144  -2.031   0.600  1.00  0.00     0.226 C 
BRANCH  14  15
HETATM   15  N   UNL     1      -0.650  -3.386   0.521  1.00  0.00    -0.257 N 
HETATM   16  N   UNL     1      -1.250  -4.344   1.261  1.00  0.00    -0.165 NA
HETATM   17  C   UNL     1      -0.570  -5.432   0.891  1.00  0.00     0.256 A 
HETATM   18  N   UNL     1       0.455  -5.207   0.023  1.00  0.00    -0.234 NA
HETATM   19  C   UNL     1       0.393  -3.908  -0.180  1.00  0.00     0.230 A 
ENDBRANCH  14  15
ENDBRANCH   8  14
ENDBRANCH   1   8
BRANCH   5  20
HETATM   20  O   UNL     1      -1.634  -1.912  -6.153  1.00  0.00    -0.311 OA
BRANCH  20  21
HETATM   21  C   UNL     1      -1.514  -3.217  -6.570  1.00  0.00     0.076 A 
HETATM   22  C   UNL     1      -2.654  -3.867  -7.043  1.00  0.00     0.039 A 
HETATM   23  C   UNL     1      -2.574  -5.206  -7.421  1.00  0.00     0.026 A 
HETATM   24  C   UNL     1      -1.349  -5.873  -7.354  1.00  0.00     0.034 A 
HETATM   25 CL   UNL     1      -1.258  -7.531  -7.804  1.00  0.00    -0.084 Cl
HETATM   26  C   UNL     1      -0.200  -5.208  -6.922  1.00  0.00     0.026 A 
HETATM   27  C   UNL     1      -0.280  -3.870  -6.531  1.00  0.00     0.039 A 
ENDBRANCH  20  21
ENDBRANCH   5  20
TORSDOF 5
