REMARK  7 active torsions:
REMARK  status: ('A' for Active; 'I' for Inactive)
REMARK    1  A    between atoms: C_1  and  N_5 
REMARK    2  A    between atoms: C_2  and  N_4 
REMARK    3  A    between atoms: C_3  and  N_6 
REMARK    4  A    between atoms: N_6  and  C_13 
REMARK    5  A    between atoms: N_6  and  C_21 
REMARK    6  A    between atoms: C_7  and  C_8 
REMARK    7  A    between atoms: C_13  and  C_16 
ROOT
HETATM    1  C   UNL     1      -0.589   0.933  -0.435  1.00  0.00     0.132 A 
HETATM    2  C   UNL     1      -0.713  -0.941   1.001  1.00  0.00     0.132 A 
HETATM    3  C   UNL     1      -1.421  -0.030   0.188  1.00  0.00     0.097 A 
HETATM    4  C   UNL     1       1.478  -0.008   0.432  1.00  0.00     0.052 A 
HETATM    5  C   UNL     1       0.699  -0.946   1.118  1.00  0.00     0.054 A 
HETATM    6  C   UNL     1       0.818   0.957  -0.328  1.00  0.00     0.054 A 
ENDROOT
BRANCH   3   7
HETATM    7  N   UNL     1      -2.803  -0.056  -0.056  1.00  0.00    -0.373 N 
BRANCH   7   8
HETATM    8  C   UNL     1      -3.529  -1.310  -0.353  1.00  0.00     0.156 C 
BRANCH   8   9
HETATM    9  C   UNL     1      -2.831  -2.238  -1.329  1.00  0.00    -0.075 C 
HETATM   10  C   UNL     1      -2.101  -1.843  -2.387  1.00  0.00     0.015 C 
HETATM   11  C   UNL     1      -3.083  -3.704  -1.090  1.00  0.00     0.044 C 
ENDBRANCH   8   9
ENDBRANCH   7   8
BRANCH   7  12
HETATM   12  C   UNL     1      -3.555   1.051   0.591  1.00  0.00     0.119 C 
HETATM   13  C   UNL     1      -4.928   0.685   1.141  1.00  0.00     0.026 C 
ENDBRANCH   7  12
ENDBRANCH   3   7
BRANCH   1  14
HETATM   14  N   UNL     1      -1.159   1.974  -1.266  1.00  0.00    -0.113 N 
HETATM   15  O   UNL     1      -1.277   1.736  -2.475  1.00  0.00    -0.532 OA
HETATM   16  O   UNL     1      -1.393   3.057  -0.711  1.00  0.00    -0.532 OA
ENDBRANCH   1  14
BRANCH   2  17
HETATM   17  N   UNL     1      -1.408  -1.870   1.876  1.00  0.00    -0.113 N 
HETATM   18  O   UNL     1      -1.085  -3.064   1.798  1.00  0.00    -0.532 OA
HETATM   19  O   UNL     1      -2.218  -1.397   2.684  1.00  0.00    -0.532 OA
ENDBRANCH   2  17
BRANCH   4  20
HETATM   20  C   UNL     1       2.984  -0.009   0.556  1.00  0.00     0.417 C 
HETATM   21  F   UNL     1       3.602   0.641  -0.467  1.00  0.00    -0.166 F 
HETATM   22  F   UNL     1       3.402   0.597   1.699  1.00  0.00    -0.166 F 
HETATM   23  F   UNL     1       3.508  -1.264   0.577  1.00  0.00    -0.166 F 
ENDBRANCH   4  20
TORSDOF 7
