REMARK  4 active torsions:
REMARK  status: ('A' for Active; 'I' for Inactive)
REMARK    1  A    between atoms: C_1  and  C_2 
REMARK    2  A    between atoms: C_1  and  C_3 
REMARK    3  A    between atoms: C_1  and  C_4 
REMARK    4  A    between atoms: C_1  and  O_11 
ROOT
HETATM    1  C   UNL     1       0.929   0.061   0.030  1.00  0.00     0.144 C 
ENDROOT
BRANCH   1   2
HETATM    2  C   UNL     1       0.594  -0.953  -1.103  1.00  0.00     0.007 A 
HETATM    3  C   UNL     1       0.930  -0.716  -2.461  1.00  0.00     0.044 A 
HETATM    4 CL   UNL     1       1.810   0.678  -2.991  1.00  0.00    -0.084 Cl
HETATM    5  C   UNL     1       0.620  -1.644  -3.466  1.00  0.00     0.024 A 
HETATM    6  C   UNL     1       0.020  -2.856  -3.146  1.00  0.00     0.002 A 
HETATM    7  C   UNL     1      -0.285  -3.136  -1.822  1.00  0.00     0.001 A 
HETATM    8  C   UNL     1      -0.021  -2.194  -0.820  1.00  0.00     0.012 A 
ENDBRANCH   1   2
BRANCH   1   9
HETATM    9  C   UNL     1       0.506  -0.361   1.440  1.00  0.00     0.021 A 
HETATM   10  C   UNL     1      -0.557   0.186   2.142  1.00  0.00     0.130 A 
HETATM   11  N   UNL     1      -0.933  -0.192   3.383  1.00  0.00    -0.253 NA
HETATM   12  C   UNL     1      -0.203  -1.163   3.945  1.00  0.00     0.232 A 
HETATM   13  N   UNL     1       0.841  -1.782   3.379  1.00  0.00    -0.253 NA
HETATM   14  C   UNL     1       1.177  -1.352   2.144  1.00  0.00     0.130 A 
ENDBRANCH   1   9
BRANCH   1  15
HETATM   15  C   UNL     1       0.446   1.503  -0.270  1.00  0.00    -0.014 A 
HETATM   16  C   UNL     1      -0.781   1.753  -0.920  1.00  0.00     0.012 A 
HETATM   17  C   UNL     1      -1.191   3.060  -1.204  1.00  0.00     0.024 A 
HETATM   18  C   UNL     1      -0.394   4.136  -0.822  1.00  0.00     0.034 A 
HETATM   19  C   UNL     1       0.801   3.920  -0.145  1.00  0.00     0.024 A 
HETATM   20 CL   UNL     1      -0.891   5.742  -1.189  1.00  0.00    -0.084 Cl
HETATM   21  C   UNL     1       1.214   2.615   0.135  1.00  0.00     0.012 A 
ENDBRANCH   1  15
BRANCH   1  22
HETATM   22  O   UNL     1       2.371   0.111   0.111  1.00  0.00    -0.375 OA
HETATM   23  H   UNL     1       2.732  -0.156  -0.751  1.00  0.00     0.211 HD
ENDBRANCH   1  22
TORSDOF 4
