REMARK  1 active torsions:
REMARK  status: ('A' for Active; 'I' for Inactive)
REMARK    1  A    between atoms: C_2  and  C_5 
ROOT
HETATM    1  C   UNL     1       0.555   2.935  -0.007  1.00  0.00     0.014 A 
HETATM    2  C   UNL     1       1.525   4.001  -0.026  1.00  0.00     0.072 A 
HETATM    3  C   UNL     1      -0.675   3.581   0.009  1.00  0.00     0.101 A 
HETATM    4  C   UNL     1       0.850   5.206  -0.020  1.00  0.00     0.111 A 
HETATM    5  C   UNL     1       2.955   3.941  -0.049  1.00  0.00     0.102 C 
HETATM    6  N   UNL     1      -0.487   4.939  -0.000  1.00  0.00    -0.373 N 
HETATM    7  N   UNL     1       4.115   3.895  -0.067  1.00  0.00    -0.191 NA
HETATM    8  H   UNL     1      -1.228   5.631   0.007  1.00  0.00     0.164 HD
ENDROOT
BRANCH   1   9
HETATM    9  C   UNL     1       0.707   1.465  -0.003  1.00  0.00     0.013 A 
HETATM   10  C   UNL     1      -0.364   0.567  -0.003  1.00  0.00     0.122 A 
HETATM   11  C   UNL     1      -0.177  -0.808  -0.001  1.00  0.00     0.112 A 
HETATM   12  O   UNL     1      -1.698   0.867  -0.005  1.00  0.00    -0.255 OA
HETATM   13  O   UNL     1      -1.342  -1.512  -0.001  1.00  0.00    -0.256 OA
HETATM   14  C   UNL     1       1.070  -1.387   0.001  1.00  0.00     0.040 A 
HETATM   15  C   UNL     1      -2.280  -0.437   0.011  1.00  0.00     0.498 A 
HETATM   16  F   UNL     1      -3.092  -0.560  -1.067  1.00  0.00    -0.147 F 
HETATM   17  F   UNL     1      -3.053  -0.550   1.120  1.00  0.00    -0.147 F 
HETATM   18  C   UNL     1       2.164  -0.533   0.003  1.00  0.00     0.004 A 
HETATM   19  C   UNL     1       1.983   0.866   0.003  1.00  0.00     0.015 A 
ENDBRANCH   1   9
TORSDOF 1
