REMARK  7 active torsions:
REMARK  status: ('A' for Active; 'I' for Inactive)
REMARK    1  A    between atoms: C_1  and  C_2 
REMARK    2  A    between atoms: C_1  and  O_5 
REMARK    3  A    between atoms: C_2  and  O_6 
REMARK    4  A    between atoms: O_5  and  C_24 
REMARK    5  A    between atoms: O_6  and  C_7 
REMARK    6  A    between atoms: C_12  and  O_13 
REMARK    7  A    between atoms: O_13  and  C_15 
ROOT
HETATM    1  C   UNL     1       0.673   2.099   3.134  1.00  0.00     0.070 A 
HETATM    2  C   UNL     1       0.052   1.671   4.307  1.00  0.00     0.039 A 
HETATM    3  C   UNL     1       0.962   3.450   2.959  1.00  0.00     0.039 A 
HETATM    4  C   UNL     1      -0.387   2.600   5.249  1.00  0.00     0.040 A 
HETATM    5  C   UNL     1       0.546   4.383   3.916  1.00  0.00     0.040 A 
HETATM    6  C   UNL     1      -0.148   3.959   5.055  1.00  0.00     0.080 A 
ENDROOT
BRANCH   6   7
HETATM    7  O   UNL     1      -0.701   4.800   5.990  1.00  0.00    -0.272 OA
BRANCH   7   8
HETATM    8  C   UNL     1      -0.242   6.029   6.158  1.00  0.00     0.298 A 
HETATM    9  N   UNL     1       1.006   6.422   6.301  1.00  0.00    -0.199 NA
HETATM   10  C   UNL     1       0.885   7.785   6.379  1.00  0.00     0.095 A 
HETATM   11  C   UNL     1      -0.450   8.151   6.274  1.00  0.00     0.110 A 
HETATM   12  C   UNL     1       1.853   8.787   6.517  1.00  0.00     0.036 A 
HETATM   13  O   UNL     1      -1.189   7.010   6.163  1.00  0.00    -0.270 OA
HETATM   14  C   UNL     1      -0.920   9.457   6.267  1.00  0.00     0.063 A 
HETATM   15  C   UNL     1       0.065  10.443   6.379  1.00  0.00     0.036 A 
HETATM   16  C   UNL     1       1.423  10.123   6.511  1.00  0.00     0.026 A 
HETATM   17 CL   UNL     1      -0.408  12.100   6.343  1.00  0.00    -0.084 Cl
ENDBRANCH   7   8
ENDBRANCH   6   7
BRANCH   1  18
HETATM   18  O   UNL     1       1.143   1.204   2.216  1.00  0.00    -0.336 OA
BRANCH  18  19
HETATM   19  C   UNL     1       0.141   0.607   1.350  1.00  0.00     0.224 C 
HETATM   20  C   UNL     1      -0.633  -0.460   2.120  1.00  0.00     0.051 C 
BRANCH  19  21
HETATM   21  C   UNL     1       0.909  -0.026   0.176  1.00  0.00     0.288 C 
HETATM   22  O   UNL     1       2.138  -0.011   0.099  1.00  0.00    -0.262 OA
BRANCH  21  23
HETATM   23  O   UNL     1       0.209  -0.648  -0.807  1.00  0.00    -0.320 OA
BRANCH  23  24
HETATM   24  C   UNL     1      -1.188  -0.453  -1.096  1.00  0.00     0.174 C 
HETATM   25  C   UNL     1      -1.473  -1.145  -2.419  1.00  0.00     0.034 C 
ENDBRANCH  23  24
ENDBRANCH  21  23
ENDBRANCH  19  21
ENDBRANCH  18  19
ENDBRANCH   1  18
TORSDOF 7
