REMARK  8 active torsions:
REMARK  status: ('A' for Active; 'I' for Inactive)
REMARK    1  A    between atoms: C_1  and  O_3 
REMARK       I    between atoms: C_1  and  N_4 
REMARK    2  A    between atoms: O_3  and  C_21 
REMARK    3  A    between atoms: N_4  and  C_5 
REMARK    4  A    between atoms: C_5  and  C_6 
REMARK    5  A    between atoms: C_6  and  O_7 
REMARK    6  A    between atoms: O_7  and  C_8 
REMARK    7  A    between atoms: C_13  and  O_14 
REMARK    8  A    between atoms: O_14  and  C_15 
ROOT
HETATM    1  C   UNL     1       6.796  -2.045   0.591  1.00  0.00     0.069 A 
HETATM    2  C   UNL     1       7.484  -3.174   1.038  1.00  0.00     0.039 A 
HETATM    3  C   UNL     1       7.519  -0.899   0.265  1.00  0.00     0.039 A 
HETATM    4  C   UNL     1       8.867  -3.124   1.249  1.00  0.00     0.040 A 
HETATM    5  C   UNL     1       8.907  -0.865   0.434  1.00  0.00     0.040 A 
HETATM    6  C   UNL     1       9.579  -1.949   0.997  1.00  0.00     0.076 A 
ENDROOT
BRANCH   1   7
HETATM    7  O   UNL     1       5.436  -2.178   0.504  1.00  0.00    -0.350 OA
BRANCH   7   8
HETATM    8  C   UNL     1       4.701  -0.970   0.292  1.00  0.00     0.195 C 
BRANCH   8   9
HETATM    9  C   UNL     1       3.206  -1.261   0.388  1.00  0.00     0.151 C 
BRANCH   9  10
HETATM   10  N   UNL     1       2.392  -0.102   0.089  1.00  0.00    -0.335 N 
HETATM   11  C   UNL     1       1.033  -0.153   0.116  1.00  0.00     0.360 C 
HETATM   12  O   UNL     1       0.370  -1.124   0.450  1.00  0.00    -0.239 OA
HETATM   13  H   UNL     1       2.791   0.747  -0.290  1.00  0.00     0.164 HD
BRANCH  11  14
HETATM   14  O   UNL     1       0.532   1.036  -0.300  1.00  0.00    -0.304 OA
BRANCH  14  15
HETATM   15  C   UNL     1      -0.900   1.083  -0.319  1.00  0.00     0.176 C 
HETATM   16  C   UNL     1      -1.334   2.458  -0.791  1.00  0.00     0.034 C 
ENDBRANCH  14  15
ENDBRANCH  11  14
ENDBRANCH   9  10
ENDBRANCH   8   9
ENDBRANCH   7   8
ENDBRANCH   1   7
BRANCH   6  17
HETATM   17  O   UNL     1      10.922  -1.996   1.303  1.00  0.00    -0.311 OA
BRANCH  17  18
HETATM   18  C   UNL     1      11.668  -0.845   1.420  1.00  0.00     0.076 A 
HETATM   19  C   UNL     1      11.214   0.352   1.980  1.00  0.00     0.037 A 
HETATM   20  C   UNL     1      12.031   1.484   1.973  1.00  0.00     0.003 A 
HETATM   21  C   UNL     1      13.334   1.401   1.486  1.00  0.00     0.000 A 
HETATM   22  C   UNL     1      13.827   0.181   1.024  1.00  0.00     0.003 A 
HETATM   23  C   UNL     1      12.994  -0.939   0.991  1.00  0.00     0.037 A 
ENDBRANCH  17  18
ENDBRANCH   6  17
TORSDOF 8
