REMARK  4 active torsions:
REMARK  status: ('A' for Active; 'I' for Inactive)
REMARK    1  A    between atoms: C_1  and  N_2 
REMARK    2  A    between atoms: N_3  and  C_6 
REMARK    3  A    between atoms: C_9  and  O_12 
REMARK    4  A    between atoms: O_12  and  C_13 
REMARK       I    between atoms: C_13  and  N_15 
ROOT
HETATM    1  C   UNL     1       2.897  -1.068   0.488  1.00  0.00     0.060 A 
HETATM    2  C   UNL     1       4.057  -0.700   1.175  1.00  0.00     0.069 A 
HETATM    3  C   UNL     1       2.521  -2.415   0.460  1.00  0.00     0.032 A 
HETATM    4  C   UNL     1       4.827  -1.657   1.829  1.00  0.00     0.083 A 
HETATM    5  C   UNL     1       3.286  -3.378   1.125  1.00  0.00     0.005 A 
HETATM    6  C   UNL     1       4.443  -2.999   1.809  1.00  0.00     0.037 A 
ENDROOT
BRANCH   4   7
HETATM    7  O   UNL     1       6.051  -1.381   2.492  1.00  0.00    -0.262 OA
BRANCH   7   8
HETATM    8  C   UNL     1       6.599  -0.113   2.686  1.00  0.00     0.365 C 
HETATM    9  O   UNL     1       6.079   0.956   2.404  1.00  0.00    -0.238 OA
HETATM   10  N   UNL     1       7.839  -0.233   3.250  1.00  0.00    -0.341 N 
HETATM   11  C   UNL     1       8.681   0.903   3.517  1.00  0.00     0.151 C 
HETATM   12  H   UNL     1       8.169  -1.170   3.434  1.00  0.00     0.164 HD
ENDBRANCH   7   8
ENDBRANCH   4   7
BRANCH   1  13
HETATM   13  N   UNL     1       2.236  -0.063  -0.228  1.00  0.00    -0.244 NA
HETATM   14  C   UNL     1       0.958   0.071  -0.124  1.00  0.00     0.204 C 
BRANCH  14  15
HETATM   15  N   UNL     1       0.221   1.052  -0.743  1.00  0.00    -0.384 N 
HETATM   16  C   UNL     1       0.870   2.155  -1.438  1.00  0.00     0.149 C 
HETATM   17  C   UNL     1      -1.227   1.092  -0.696  1.00  0.00     0.149 C 
ENDBRANCH  14  15
ENDBRANCH   1  13
TORSDOF 4
