REMARK  4 active torsions:
REMARK  status: ('A' for Active; 'I' for Inactive)
REMARK    1  A    between atoms: C_2  and  C_9 
REMARK    2  A    between atoms: C_9  and  C_11 
REMARK    3  A    between atoms: C_12  and  N_21 
REMARK    4  A    between atoms: C_16  and  S_17 
ROOT
HETATM    1  C   UNL     1       2.206   1.304   2.471  1.00  0.00     0.044 A 
HETATM    2  C   UNL     1       3.413   1.119   3.158  1.00  0.00     0.118 A 
HETATM    3  C   UNL     1       1.642   2.585   2.429  1.00  0.00     0.019 A 
HETATM    4  C   UNL     1       4.090   2.198   3.757  1.00  0.00     0.060 A 
HETATM    5  C   UNL     1       2.309   3.666   3.008  1.00  0.00     0.024 A 
HETATM    6  C   UNL     1       3.531   3.473   3.664  1.00  0.00     0.061 A 
ENDROOT
BRANCH   1   7
HETATM    7  C   UNL     1       1.430   0.170   1.923  1.00  0.00     0.180 C 
HETATM    8  O   UNL     1       0.903  -0.580   2.738  1.00  0.00    -0.291 OA
BRANCH   7   9
HETATM    9  C   UNL     1       1.296   0.024   0.421  1.00  0.00     0.199 C 
HETATM   10  C   UNL     1       0.511   1.160  -0.186  1.00  0.00     0.145 C 
HETATM   11  C   UNL     1      -0.993   1.112  -0.029  1.00  0.00     0.080 C 
HETATM   12  O   UNL     1       1.071   2.154  -0.648  1.00  0.00    -0.297 OA
HETATM   13  C   UNL     1      -1.528  -0.226  -0.516  1.00  0.00     0.015 C 
HETATM   14  C   UNL     1      -0.846  -1.398   0.178  1.00  0.00     0.080 C 
HETATM   15  C   UNL     1       0.658  -1.289   0.018  1.00  0.00     0.145 C 
HETATM   16  O   UNL     1       1.325  -2.234  -0.399  1.00  0.00    -0.297 OA
ENDBRANCH   7   9
ENDBRANCH   1   7
BRANCH   2  17
HETATM   17  N   UNL     1       4.020  -0.201   3.244  1.00  0.00    -0.115 N 
HETATM   18  O   UNL     1       4.540  -0.510   4.324  1.00  0.00    -0.532 OA
HETATM   19  O   UNL     1       4.040  -0.880   2.211  1.00  0.00    -0.532 OA
ENDBRANCH   2  17
BRANCH   6  20
HETATM   20  S   UNL     1       4.299   4.920   4.356  1.00  0.00     0.172 S 
HETATM   21  O   UNL     1       4.803   5.674   3.227  1.00  0.00    -0.223 OA
HETATM   22  O   UNL     1       3.324   5.486   5.270  1.00  0.00    -0.223 OA
HETATM   23  C   UNL     1       5.685   4.391   5.318  1.00  0.00     0.167 C 
ENDBRANCH   6  20
TORSDOF 4
