REMARK  3 active torsions:
REMARK  status: ('A' for Active; 'I' for Inactive)
REMARK    1  A    between atoms: N_2  and  C_7 
REMARK    2  A    between atoms: N_6  and  N_15 
REMARK    3  A    between atoms: C_7  and  C_11 
ROOT
HETATM    1  N   UNL     1      -0.866  -0.861  -0.111  1.00  0.00    -0.221 N 
HETATM    2  N   UNL     1       1.061   0.103   0.270  1.00  0.00    -0.209 N 
HETATM    3  C   UNL     1       0.485  -1.112  -0.101  1.00  0.00     0.720 C 
HETATM    4  C   UNL     1      -1.246   0.484   0.236  1.00  0.00     0.158 C 
HETATM    5  C   UNL     1       0.096   1.206   0.125  1.00  0.00     0.162 C 
HETATM    6  N   UNL     1       1.123  -2.207  -0.337  1.00  0.00     0.083 NA
HETATM    7  H   UNL     1      -1.543  -1.593  -0.308  1.00  0.00     0.177 HD
ENDROOT
BRANCH   2   8
HETATM    8  C   UNL     1       2.463   0.495   0.297  1.00  0.00     0.181 C 
BRANCH   8   9
HETATM    9  C   UNL     1       3.513  -0.530   0.637  1.00  0.00    -0.022 A 
HETATM   10  C   UNL     1       3.316  -1.597   1.508  1.00  0.00     0.127 A 
HETATM   11  N   UNL     1       4.260  -2.518   1.821  1.00  0.00    -0.248 NA
HETATM   12  C   UNL     1       5.471  -2.352   1.258  1.00  0.00     0.125 A 
HETATM   13  C   UNL     1       5.809  -1.290   0.441  1.00  0.00     0.045 A 
HETATM   14 CL   UNL     1       6.617  -3.572   1.631  1.00  0.00    -0.062 Cl
HETATM   15  C   UNL     1       4.815  -0.364   0.137  1.00  0.00     0.013 A 
ENDBRANCH   8   9
ENDBRANCH   2   8
BRANCH   6  16
HETATM   16  N   UNL     1       0.434  -3.343  -0.564  1.00  0.00     0.001 N 
HETATM   17  O   UNL     1      -0.747  -3.327  -0.948  1.00  0.00    -0.515 OA
HETATM   18  O   UNL     1       1.041  -4.409  -0.377  1.00  0.00    -0.515 OA
ENDBRANCH   6  16
TORSDOF 3
