REMARK  8 active torsions:
REMARK  status: ('A' for Active; 'I' for Inactive)
REMARK    1  A    between atoms: P_1  and  S_2 
REMARK    2  A    between atoms: P_1  and  O_5 
REMARK    3  A    between atoms: P_1  and  O_6 
REMARK    4  A    between atoms: S_2  and  C_4 
REMARK    5  A    between atoms: C_4  and  S_7 
REMARK    6  A    between atoms: O_5  and  C_10 
REMARK    7  A    between atoms: O_6  and  C_9 
REMARK    8  A    between atoms: S_7  and  C_8 
ROOT
HETATM    1  P   UNL     1       0.978   0.097  -0.008  1.00  0.00     0.248 P 
HETATM    2  S   UNL     1       0.868   1.013  -1.834  1.00  0.00    -0.026 SA
ENDROOT
BRANCH   1   3
HETATM    3  S   UNL     1       1.147   1.469   1.706  1.00  0.00    -0.064 SA
BRANCH   3   4
HETATM    4  C   UNL     1       1.099   0.377   3.131  1.00  0.00     0.157 C 
BRANCH   4   5
HETATM    5  S   UNL     1       0.995   1.390   4.636  1.00  0.00    -0.159 SA
BRANCH   5   6
HETATM    6  C   UNL     1       1.008   0.074   5.882  1.00  0.00     0.070 C 
HETATM    7  C   UNL     1       0.968   0.690   7.270  1.00  0.00     0.016 C 
ENDBRANCH   5   6
ENDBRANCH   4   5
ENDBRANCH   3   4
ENDBRANCH   1   3
BRANCH   1   8
HETATM    8  O   UNL     1      -0.752   0.097  -0.008  1.00  0.00    -0.327 OA
BRANCH   8   9
HETATM    9  C   UNL     1      -1.568   1.196   0.381  1.00  0.00     0.172 C 
HETATM   10  C   UNL     1      -2.976   0.943  -0.127  1.00  0.00     0.034 C 
ENDBRANCH   8   9
ENDBRANCH   1   8
BRANCH   1  11
HETATM   11  O   UNL     1       2.708   0.097  -0.008  1.00  0.00    -0.327 OA
BRANCH  11  12
HETATM   12  C   UNL     1       3.526  -0.296  -1.099  1.00  0.00     0.172 C 
HETATM   13  C   UNL     1       4.944  -0.467  -0.586  1.00  0.00     0.034 C 
ENDBRANCH  11  12
ENDBRANCH   1  11
TORSDOF 8
