REMARK  7 active torsions:
REMARK  status: ('A' for Active; 'I' for Inactive)
REMARK    1  A    between atoms: C_4  and  O_7 
REMARK    2  A    between atoms: O_7  and  P_8 
REMARK    3  A    between atoms: P_8  and  S_9 
REMARK    4  A    between atoms: P_8  and  O_11 
REMARK    5  A    between atoms: S_9  and  C_14 
REMARK    6  A    between atoms: O_11  and  C_15 
REMARK    7  A    between atoms: C_14  and  C_16 
ROOT
HETATM    1  O   UNL     1       2.780   0.187  -0.212  1.00  0.00    -0.262 OA
ENDROOT
BRANCH   1   2
HETATM    2  C   UNL     1       1.411   0.116  -0.108  1.00  0.00     0.101 A 
HETATM    3  C   UNL     1       0.688   1.315  -0.170  1.00  0.00     0.069 A 
HETATM    4  C   UNL     1      -0.708   1.309  -0.094  1.00  0.00     0.046 A 
HETATM    5 CL   UNL     1       1.484   2.838  -0.343  1.00  0.00    -0.081 Cl
HETATM    6  C   UNL     1      -1.381   0.098   0.042  1.00  0.00     0.012 A 
HETATM    7 BR   UNL     1      -3.269   0.074   0.128  1.00  0.00    -0.051 Br
HETATM    8  C   UNL     1      -0.674  -1.099   0.114  1.00  0.00     0.022 A 
HETATM    9  C   UNL     1       0.723  -1.093   0.047  1.00  0.00     0.040 A 
ENDBRANCH   1   2
BRANCH   1  10
HETATM   10  P   UNL     1       3.723  -1.264  -0.216  1.00  0.00     0.395 P 
HETATM   11  O   UNL     1       4.910  -0.506   0.389  1.00  0.00    -0.245 OA
BRANCH  10  12
HETATM   12  S   UNL     1       3.982  -1.148  -2.398  1.00  0.00    -0.045 SA
BRANCH  12  13
HETATM   13  C   UNL     1       2.500  -1.950  -3.059  1.00  0.00     0.086 C 
BRANCH  13  14
HETATM   14  C   UNL     1       2.539  -2.000  -4.583  1.00  0.00     0.006 C 
HETATM   15  C   UNL     1       1.328  -2.742  -5.133  1.00  0.00     0.006 C 
ENDBRANCH  13  14
ENDBRANCH  12  13
ENDBRANCH  10  12
BRANCH  10  16
HETATM   16  O   UNL     1       4.666  -2.714  -0.220  1.00  0.00    -0.306 OA
BRANCH  16  17
HETATM   17  C   UNL     1       3.915  -3.894   0.006  1.00  0.00     0.174 C 
HETATM   18  C   UNL     1       4.834  -5.092  -0.109  1.00  0.00     0.034 C 
ENDBRANCH  16  17
ENDBRANCH  10  16
ENDBRANCH   1  10
TORSDOF 7
