REMARK  9 active torsions:
REMARK  status: ('A' for Active; 'I' for Inactive)
REMARK    1  A    between atoms: C_1  and  C_3 
REMARK    2  A    between atoms: C_1  and  O_4 
REMARK    3  A    between atoms: C_5  and  S_10 
REMARK    4  A    between atoms: S_10  and  N_13 
REMARK       I    between atoms: N_13  and  C_14 
REMARK       I    between atoms: C_14  and  N_16 
REMARK    5  A    between atoms: N_16  and  C_19 
REMARK    6  A    between atoms: C_21  and  O_27 
REMARK    7  A    between atoms: C_22  and  O_23 
REMARK    8  A    between atoms: O_23  and  C_24 
REMARK    9  A    between atoms: O_27  and  C_28 
ROOT
HETATM    1  N   UNL     1       1.819   2.412  -1.277  1.00  0.00    -0.231 N 
HETATM    2  C   UNL     1       2.623   3.143  -2.158  1.00  0.00     0.348 C 
HETATM    3  O   UNL     1       2.906   4.309  -1.938  1.00  0.00    -0.245 OA
HETATM    4  N   UNL     1       3.075   2.405  -3.217  1.00  0.00    -0.137 N 
HETATM    5  H   UNL     1       1.264   1.647  -1.662  1.00  0.00     0.183 HD
HETATM    6  H   UNL     1       3.028   1.403  -3.196  1.00  0.00     0.189 HD
ENDROOT
BRANCH   1   7
HETATM    7  S   UNL     1       1.287   3.118   0.138  1.00  0.00     0.267 S 
HETATM    8  O   UNL     1       0.319   4.128  -0.235  1.00  0.00    -0.200 OA
HETATM    9  O   UNL     1       2.445   3.417   0.953  1.00  0.00    -0.200 OA
BRANCH   7  10
HETATM   10  C   UNL     1       0.363   1.950   1.107  1.00  0.00     0.096 A 
HETATM   11  C   UNL     1       0.363   0.569   0.928  1.00  0.00     0.062 A 
HETATM   12  C   UNL     1      -0.374  -0.256   1.794  1.00  0.00     0.019 A 
HETATM   13  C   UNL     1      -1.096   0.304   2.850  1.00  0.00     0.001 A 
HETATM   14  C   UNL     1      -1.086   1.682   3.047  1.00  0.00     0.002 A 
HETATM   15  C   UNL     1      -0.361   2.501   2.181  1.00  0.00     0.026 A 
BRANCH  11  16
HETATM   16  C   UNL     1       1.079  -0.065  -0.173  1.00  0.00     0.294 C 
HETATM   17  O   UNL     1       0.718   0.044  -1.334  1.00  0.00    -0.259 OA
BRANCH  16  18
HETATM   18  O   UNL     1       2.235  -0.582   0.289  1.00  0.00    -0.322 OA
HETATM   19  C   UNL     1       3.157  -1.013  -0.716  1.00  0.00     0.213 C 
ENDBRANCH  16  18
ENDBRANCH  11  16
ENDBRANCH   7  10
ENDBRANCH   1   7
BRANCH   4  20
HETATM   20  C   UNL     1       3.797   2.966  -4.264  1.00  0.00     0.735 A 
HETATM   21  N   UNL     1       3.726   4.282  -4.462  1.00  0.00    -0.038 NA
HETATM   22  C   UNL     1       4.412   4.805  -5.479  1.00  0.00     0.192 A 
HETATM   23  C   UNL     1       5.155   4.047  -6.338  1.00  0.00     0.117 A 
HETATM   24  C   UNL     1       5.158   2.700  -6.071  1.00  0.00     0.192 A 
HETATM   25  N   UNL     1       4.486   2.126  -5.051  1.00  0.00    -0.038 NA
BRANCH  22  26
HETATM   26  O   UNL     1       4.333   6.153  -5.722  1.00  0.00    -0.271 OA
BRANCH  26  27
HETATM   27  C   UNL     1       3.691   6.856  -4.668  1.00  0.00     0.506 C 
HETATM   28  F   UNL     1       4.576   7.010  -3.652  1.00  0.00    -0.184 F 
HETATM   29  F   UNL     1       3.439   8.108  -5.140  1.00  0.00    -0.184 F 
ENDBRANCH  26  27
ENDBRANCH  22  26
BRANCH  24  30
HETATM   30  O   UNL     1       5.912   1.936  -6.935  1.00  0.00    -0.271 OA
BRANCH  30  31
HETATM   31  C   UNL     1       5.985   0.575  -6.568  1.00  0.00     0.506 C 
HETATM   32  F   UNL     1       4.816  -0.035  -6.882  1.00  0.00    -0.184 F 
HETATM   33  F   UNL     1       6.934   0.008  -7.361  1.00  0.00    -0.184 F 
ENDBRANCH  30  31
ENDBRANCH  24  30
ENDBRANCH   4  20
TORSDOF 9
