REMARK  8 active torsions:
REMARK  status: ('A' for Active; 'I' for Inactive)
REMARK    1  A    between atoms: P_1  and  O_5 
REMARK    2  A    between atoms: P_1  and  N_7 
REMARK    3  A    between atoms: P_1  and  O_10 
REMARK    4  A    between atoms: C_2  and  C_3 
REMARK    5  A    between atoms: C_3  and  O_9 
REMARK    6  A    between atoms: C_4  and  O_5 
REMARK    7  A    between atoms: N_7  and  C_13 
REMARK    8  A    between atoms: O_9  and  C_12 
ROOT
HETATM    1  C   UNL     1       0.860  -2.842  -0.033  1.00  0.00     0.114 C 
HETATM    2  C   UNL     1       0.932  -2.424   1.243  1.00  0.00     0.057 C 
HETATM    3  C   UNL     1       0.970  -0.995   1.710  1.00  0.00     0.077 C 
ENDROOT
BRANCH   2   4
HETATM    4  O   UNL     1       1.006  -3.292   2.320  1.00  0.00    -0.285 OA
BRANCH   4   5
HETATM    5  P   UNL     1       0.980  -4.940   2.373  1.00  0.00     0.267 P 
HETATM    6  S   UNL     1       1.060  -5.536   4.320  1.00  0.00    -0.020 SA
BRANCH   5   7
HETATM    7  N   UNL     1       2.760  -4.940   2.373  1.00  0.00    -0.250 NA
HETATM    8  H   UNL     1       3.003  -4.598   3.302  1.00  0.00     0.131 HD
BRANCH   7   9
HETATM    9  C   UNL     1       3.421  -6.229   2.157  1.00  0.00     0.091 C 
HETATM   10  C   UNL     1       4.928  -6.067   2.278  1.00  0.00     0.021 C 
ENDBRANCH   7   9
ENDBRANCH   5   7
BRANCH   5  11
HETATM   11  O   UNL     1      -0.750  -4.940   2.373  1.00  0.00    -0.328 OA
HETATM   12  C   UNL     1      -1.530  -4.116   3.228  1.00  0.00     0.211 C 
ENDBRANCH   5  11
ENDBRANCH   4   5
ENDBRANCH   2   4
BRANCH   1  13
HETATM   13  C   UNL     1       0.715  -1.936  -1.196  1.00  0.00     0.285 C 
HETATM   14  O   UNL     1       0.278  -0.799  -1.164  1.00  0.00    -0.260 OA
BRANCH  13  15
HETATM   15  O   UNL     1       1.133  -2.603  -2.303  1.00  0.00    -0.313 OA
BRANCH  15  16
HETATM   16  C   UNL     1       1.076  -1.853  -3.532  1.00  0.00     0.124 C 
HETATM   17  C   UNL     1       2.329  -0.992  -3.664  1.00  0.00     0.040 C 
HETATM   18  C   UNL     1       0.986  -2.853  -4.678  1.00  0.00     0.040 C 
ENDBRANCH  15  16
ENDBRANCH  13  15
ENDBRANCH   1  13
TORSDOF 8
