REMARK  7 active torsions:
REMARK  status: ('A' for Active; 'I' for Inactive)
REMARK    1  A    between atoms: C_2  and  C_22 
REMARK    2  A    between atoms: C_3  and  C_10 
REMARK    3  A    between atoms: C_4  and  C_7 
REMARK    4  A    between atoms: C_5  and  C_15 
REMARK    5  A    between atoms: C_6  and  C_18 
REMARK    6  A    between atoms: C_7  and  O_9 
REMARK    7  A    between atoms: C_18  and  C_19 
ROOT
HETATM    1  N   UNL     1      -0.675   1.212   0.101  1.00  0.00    -0.241 NA
HETATM    2  C   UNL     1      -1.428   0.076   0.141  1.00  0.00     0.154 A 
HETATM    3  C   UNL     1       0.684   1.149   0.060  1.00  0.00     0.116 A 
HETATM    4  C   UNL     1       1.368  -0.081   0.059  1.00  0.00     0.076 A 
HETATM    5  C   UNL     1      -0.834  -1.194   0.065  1.00  0.00     0.040 A 
HETATM    6  C   UNL     1       0.595  -1.305  -0.001  1.00  0.00    -0.024 A 
ENDROOT
BRANCH   5   7
HETATM    7  C   UNL     1      -1.725  -2.371   0.135  1.00  0.00     0.100 C 
HETATM    8  N   UNL     1      -1.757  -3.163   1.151  1.00  0.00    -0.281 NA
HETATM    9  C   UNL     1      -2.589  -4.354   0.864  1.00  0.00     0.160 C 
HETATM   10  C   UNL     1      -3.427  -4.182  -0.394  1.00  0.00     0.103 C 
HETATM   11  S   UNL     1      -2.789  -2.711  -1.203  1.00  0.00    -0.108 SA
ENDBRANCH   5   7
BRANCH   2  12
HETATM   12  C   UNL     1      -2.934   0.297   0.249  1.00  0.00     0.435 C 
HETATM   13  F   UNL     1      -3.570   0.214  -0.955  1.00  0.00    -0.165 F 
HETATM   14  F   UNL     1      -3.568  -0.577   1.079  1.00  0.00    -0.165 F 
HETATM   15  F   UNL     1      -3.259   1.534   0.734  1.00  0.00    -0.165 F 
ENDBRANCH   2  12
BRANCH   6  16
HETATM   16  C   UNL     1       1.369  -2.625  -0.112  1.00  0.00     0.044 C 
BRANCH  16  17
HETATM   17  C   UNL     1       0.809  -4.016  -0.465  1.00  0.00    -0.018 C 
HETATM   18  C   UNL     1       0.292  -4.083  -1.902  1.00  0.00     0.010 C 
HETATM   19  C   UNL     1       1.897  -5.087  -0.292  1.00  0.00     0.010 C 
ENDBRANCH  16  17
ENDBRANCH   6  16
BRANCH   4  20
HETATM   20  C   UNL     1       2.872   0.007   0.213  1.00  0.00     0.295 C 
HETATM   21  O   UNL     1       3.427   0.994   0.666  1.00  0.00    -0.259 OA
BRANCH  20  22
HETATM   22  O   UNL     1       3.534  -1.101  -0.176  1.00  0.00    -0.322 OA
HETATM   23  C   UNL     1       4.958  -1.067  -0.026  1.00  0.00     0.213 C 
ENDBRANCH  20  22
ENDBRANCH   4  20
BRANCH   3  24
HETATM   24  C   UNL     1       1.386   2.499  -0.052  1.00  0.00     0.406 C 
HETATM   25  F   UNL     1       2.161   2.584  -1.173  1.00  0.00    -0.207 F 
HETATM   26  F   UNL     1       0.510   3.548  -0.158  1.00  0.00    -0.207 F 
ENDBRANCH   3  24
TORSDOF 7
