REMARK  7 active torsions:
REMARK  status: ('A' for Active; 'I' for Inactive)
REMARK    1  A    between atoms: P_1  and  O_4 
REMARK    2  A    between atoms: P_1  and  O_2 
REMARK    3  A    between atoms: P_1  and  O_3 
REMARK    4  A    between atoms: O_2  and  C_14 
REMARK    5  A    between atoms: O_3  and  C_5 
REMARK    6  A    between atoms: O_4  and  C_13 
REMARK    7  A    between atoms: C_9  and  C_12 
ROOT
HETATM    1  C   UNL     1       3.381   0.099   1.248  1.00  0.00     0.114 A 
HETATM    2  C   UNL     1       4.386   1.022   1.419  1.00  0.00     0.157 A 
HETATM    3  N   UNL     1       5.083   1.152   2.565  1.00  0.00    -0.242 NA
HETATM    4  C   UNL     1       4.792   0.292   3.559  1.00  0.00     0.133 A 
HETATM    5  N   UNL     1       3.838  -0.664   3.466  1.00  0.00    -0.242 NA
HETATM    6  C   UNL     1       3.170  -0.752   2.297  1.00  0.00     0.157 A 
ENDROOT
BRANCH   1   7
HETATM    7  O   UNL     1       2.708   0.064   0.074  1.00  0.00    -0.268 OA
BRANCH   7   8
HETATM    8  P   UNL     1       0.978   0.064   0.074  1.00  0.00     0.334 P 
HETATM    9  S   UNL     1       1.175  -1.072  -1.592  1.00  0.00    -0.007 SA
BRANCH   8  10
HETATM   10  O   UNL     1       0.983   1.679  -0.267  1.00  0.00    -0.309 OA
BRANCH  10  11
HETATM   11  C   UNL     1       0.431   2.593   0.682  1.00  0.00     0.123 C 
HETATM   12  C   UNL     1       1.236   2.636   1.973  1.00  0.00     0.040 C 
HETATM   13  C   UNL     1       0.408   3.970   0.031  1.00  0.00     0.040 C 
ENDBRANCH  10  11
ENDBRANCH   8  10
BRANCH   8  14
HETATM   14  O   UNL     1      -0.752   0.064   0.074  1.00  0.00    -0.314 OA
BRANCH  14  15
HETATM   15  C   UNL     1      -1.614  -0.155  -1.030  1.00  0.00     0.174 C 
HETATM   16  C   UNL     1      -3.041   0.083  -0.568  1.00  0.00     0.034 C 
ENDBRANCH  14  15
ENDBRANCH   8  14
ENDBRANCH   7   8
ENDBRANCH   1   7
BRANCH   4  17
HETATM   17  C   UNL     1       5.504   0.470   4.898  1.00  0.00     0.011 C 
HETATM   18  C   UNL     1       6.796   1.298   4.749  1.00  0.00     0.023 C 
HETATM   19  C   UNL     1       4.551   1.204   5.855  1.00  0.00     0.023 C 
HETATM   20  C   UNL     1       5.883  -0.898   5.494  1.00  0.00     0.023 C 
ENDBRANCH   4  17
TORSDOF 7
