REMARK  3 active torsions:
REMARK  status: ('A' for Active; 'I' for Inactive)
REMARK    1  A    between atoms: O_1  and  C_2 
REMARK    2  A    between atoms: O_1  and  C_3 
REMARK    3  A    between atoms: C_5  and  O_13 
ROOT
HETATM    1  C   UNL     1       2.534   0.126  -0.140  1.00  0.00     0.109 A 
HETATM    2  C   UNL     1       3.393   1.110  -0.651  1.00  0.00     0.101 A 
HETATM    3  C   UNL     1       4.774   0.901  -0.678  1.00  0.00     0.063 A 
HETATM    4  C   UNL     1       3.090  -1.101   0.250  1.00  0.00     0.042 A 
HETATM    5  C   UNL     1       5.306  -0.316  -0.273  1.00  0.00     0.036 A 
HETATM    6  C   UNL     1       4.465  -1.332   0.178  1.00  0.00     0.027 A 
HETATM    7 CL   UNL     1       7.002  -0.588  -0.357  1.00  0.00    -0.084 Cl
ENDROOT
BRANCH   1   8
HETATM    8  O   UNL     1       1.165   0.146  -0.019  1.00  0.00    -0.306 OA
BRANCH   8   9
HETATM    9  C   UNL     1       0.422   1.297  -0.038  1.00  0.00     0.098 A 
HETATM   10  C   UNL     1      -0.762   1.286  -0.790  1.00  0.00     0.069 A 
HETATM   11  C   UNL     1      -1.568   2.422  -0.866  1.00  0.00     0.050 A 
HETATM   12 CL   UNL     1      -1.254  -0.123  -1.662  1.00  0.00    -0.081 Cl
HETATM   13  C   UNL     1      -1.194   3.570  -0.172  1.00  0.00     0.035 A 
HETATM   14  C   UNL     1      -0.048   3.576   0.623  1.00  0.00     0.026 A 
HETATM   15 CL   UNL     1      -2.158   4.989  -0.297  1.00  0.00    -0.084 Cl
HETATM   16  C   UNL     1       0.749   2.430   0.713  1.00  0.00     0.041 A 
ENDBRANCH   8   9
ENDBRANCH   1   8
BRANCH   2  17
HETATM   17  O   UNL     1       2.985   2.294  -1.191  1.00  0.00    -0.358 OA
HETATM   18  H   UNL     1       2.094   2.168  -1.558  1.00  0.00     0.217 HD
ENDBRANCH   2  17
TORSDOF 3
