REMARK  6 active torsions:
REMARK  status: ('A' for Active; 'I' for Inactive)
REMARK    1  A    between atoms: C_1  and  C_2 
REMARK    2  A    between atoms: C_1  and  O_6 
REMARK    3  A    between atoms: C_1  and  N_16 
REMARK    4  A    between atoms: C_2  and  C_3 
REMARK    5  A    between atoms: C_2  and  O_5 
REMARK    6  A    between atoms: O_6  and  C_7 
ROOT
HETATM    1  C   UNL     1       0.728   0.068  -0.014  1.00  0.00     0.283 C 
ENDROOT
BRANCH   1   2
HETATM    2  C   UNL     1       0.448  -0.758   1.291  1.00  0.00     0.176 C 
BRANCH   2   3
HETATM    3  C   UNL     1      -1.033  -0.970   1.785  1.00  0.00    -0.021 C 
HETATM    4  C   UNL     1      -1.883  -1.736   0.748  1.00  0.00     0.017 C 
HETATM    5  C   UNL     1      -1.015  -1.842   3.068  1.00  0.00     0.017 C 
HETATM    6  C   UNL     1      -1.721   0.357   2.170  1.00  0.00     0.017 C 
ENDBRANCH   2   3
BRANCH   2   7
HETATM    7  O   UNL     1       1.071  -2.057   1.151  1.00  0.00    -0.390 OA
HETATM    8  H   UNL     1       0.429  -2.699   0.807  1.00  0.00     0.210 HD
ENDBRANCH   2   7
ENDBRANCH   1   2
BRANCH   1   9
HETATM    9  O   UNL     1       0.226   1.407   0.025  1.00  0.00    -0.321 OA
BRANCH   9  10
HETATM   10  C   UNL     1      -0.947   1.770  -0.558  1.00  0.00     0.071 A 
HETATM   11  C   UNL     1      -1.718   1.019  -1.440  1.00  0.00     0.038 A 
HETATM   12  C   UNL     1      -3.003   1.457  -1.789  1.00  0.00     0.026 A 
HETATM   13  C   UNL     1      -3.489   2.668  -1.300  1.00  0.00     0.034 A 
HETATM   14  C   UNL     1      -2.688   3.468  -0.493  1.00  0.00     0.026 A 
HETATM   15 CL   UNL     1      -5.090   3.167  -1.681  1.00  0.00    -0.084 Cl
HETATM   16  C   UNL     1      -1.417   3.019  -0.133  1.00  0.00     0.038 A 
ENDBRANCH   9  10
ENDBRANCH   1   9
BRANCH   1  17
HETATM   17  N   UNL     1       2.198   0.178  -0.181  1.00  0.00    -0.230 N 
HETATM   18  N   UNL     1       2.903   1.264   0.218  1.00  0.00    -0.162 NA
HETATM   19  C   UNL     1       4.145   0.918  -0.128  1.00  0.00     0.256 A 
HETATM   20  N   UNL     1       4.271  -0.312  -0.706  1.00  0.00    -0.234 NA
HETATM   21  C   UNL     1       3.036  -0.759  -0.714  1.00  0.00     0.233 A 
ENDBRANCH   1  17
TORSDOF 6
