REMARK  4 active torsions:
REMARK  status: ('A' for Active; 'I' for Inactive)
REMARK    1  A    between atoms: C_2  and  O_7 
REMARK    2  A    between atoms: O_7  and  C_11 
REMARK    3  A    between atoms: C_8  and  C_11 
REMARK    4  A    between atoms: C_8  and  O_14 
ROOT
HETATM    1  N   UNL     1      -0.847   1.180  -0.003  1.00  0.00    -0.209 NA
HETATM    2  C   UNL     1      -1.429  -0.042  -0.002  1.00  0.00     0.188 A 
HETATM    3  C   UNL     1       0.510   1.200  -0.002  1.00  0.00     0.150 A 
HETATM    4  C   UNL     1       0.682  -1.180   0.000  1.00  0.00     0.055 A 
HETATM    5  C   UNL     1      -0.710  -1.238  -0.001  1.00  0.00     0.088 A 
HETATM    6  C   UNL     1       1.312   0.062  -0.001  1.00  0.00     0.076 A 
HETATM    7 CL   UNL     1       1.146   2.799  -0.003  1.00  0.00    -0.060 Cl
HETATM    8 CL   UNL     1       3.033   0.116   0.000  1.00  0.00    -0.081 Cl
HETATM    9 CL   UNL     1      -1.480  -2.779   0.000  1.00  0.00    -0.080 Cl
ENDROOT
BRANCH   2  10
HETATM   10  O   UNL     1      -2.805  -0.116  -0.004  1.00  0.00    -0.323 OA
BRANCH  10  11
HETATM   11  C   UNL     1      -3.456   1.149  -0.009  1.00  0.00     0.287 C 
BRANCH  11  12
HETATM   12  C   UNL     1      -4.967   0.958  -0.016  1.00  0.00     0.165 C 
HETATM   13  O   UNL     1      -5.548  -0.116  -0.018  1.00  0.00    -0.648 OA
BRANCH  12  14
HETATM   14  O   UNL     1      -5.646   2.134  -0.020  1.00  0.00    -0.775 OA
HETATM   15  H   UNL     1      -5.080   2.929  -0.018  1.00  0.00     0.167 HD
ENDBRANCH  12  14
ENDBRANCH  11  12
ENDBRANCH  10  11
ENDBRANCH   2  10
TORSDOF 4
