REMARK  7 active torsions:
REMARK  status: ('A' for Active; 'I' for Inactive)
REMARK    1  A    between atoms: N_2  and  C_6 
REMARK    2  A    between atoms: C_6  and  C_7 
REMARK    3  A    between atoms: C_7  and  O_20 
REMARK    4  A    between atoms: N_8  and  C_9 
REMARK    5  A    between atoms: C_10  and  C_16 
REMARK    6  A    between atoms: O_20  and  C_21 
REMARK    7  A    between atoms: C_21  and  C_22 
ROOT
HETATM    1  C   UNL     1      -0.560   2.554   0.013  1.00  0.00     0.135 C 
HETATM    2  N   UNL     1      -1.790   2.941   0.195  1.00  0.00    -0.232 NA
ENDROOT
BRANCH   2   3
HETATM    3  C   UNL     1      -2.268   4.253   0.067  1.00  0.00     0.074 A 
HETATM    4  C   UNL     1      -1.919   5.375   0.839  1.00  0.00     0.078 A 
HETATM    5  C   UNL     1      -2.532   6.621   0.555  1.00  0.00     0.042 A 
HETATM    6  C   UNL     1      -3.533   6.732  -0.405  1.00  0.00     0.035 A 
HETATM    7  C   UNL     1      -3.940   5.612  -1.110  1.00  0.00     0.026 A 
HETATM    8 CL   UNL     1      -4.278   8.253  -0.698  1.00  0.00    -0.084 Cl
HETATM    9  C   UNL     1      -3.304   4.392  -0.875  1.00  0.00     0.034 A 
BRANCH   4  10
HETATM   10  C   UNL     1      -0.917   5.365   1.959  1.00  0.00     0.419 C 
HETATM   11  F   UNL     1       0.296   5.833   1.543  1.00  0.00    -0.166 F 
HETATM   12  F   UNL     1      -1.273   6.173   2.998  1.00  0.00    -0.166 F 
HETATM   13  F   UNL     1      -0.677   4.146   2.509  1.00  0.00    -0.166 F 
ENDBRANCH   4  10
ENDBRANCH   2   3
BRANCH   1  14
HETATM   14  N   UNL     1      -0.302   1.169   0.074  1.00  0.00    -0.301 N 
HETATM   15  C   UNL     1      -1.288   0.198   0.135  1.00  0.00     0.215 A 
HETATM   16  N   UNL     1      -0.809  -1.026   0.141  1.00  0.00    -0.254 NA
HETATM   17  C   UNL     1       0.544  -0.870   0.104  1.00  0.00     0.135 A 
HETATM   18  C   UNL     1       0.883   0.463   0.080  1.00  0.00     0.118 A 
ENDBRANCH   1  14
BRANCH   1  19
HETATM   19  C   UNL     1       0.654   3.465  -0.187  1.00  0.00     0.246 C 
BRANCH  19  20
HETATM   20  O   UNL     1       1.852   3.055  -0.809  1.00  0.00    -0.384 OA
BRANCH  20  21
HETATM   21  C   UNL     1       2.872   4.055  -0.666  1.00  0.00     0.167 C 
BRANCH  21  22
HETATM   22  C   UNL     1       4.227   3.378  -0.509  1.00  0.00     0.022 C 
HETATM   23  C   UNL     1       5.316   4.390  -0.188  1.00  0.00     0.007 C 
ENDBRANCH  21  22
ENDBRANCH  20  21
ENDBRANCH  19  20
ENDBRANCH   1  19
TORSDOF 7
