REMARK  9 active torsions:
REMARK  status: ('A' for Active; 'I' for Inactive)
REMARK    1  A    between atoms: C_1  and  C_3 
REMARK    2  A    between atoms: C_1  and  O_4 
REMARK    3  A    between atoms: C_5  and  S_10 
REMARK    4  A    between atoms: S_10  and  N_13 
REMARK       I    between atoms: N_13  and  C_14 
REMARK       I    between atoms: C_14  and  N_16 
REMARK    5  A    between atoms: N_16  and  C_18 
REMARK    6  A    between atoms: C_20  and  N_23 
REMARK    7  A    between atoms: C_22  and  O_26 
REMARK    8  A    between atoms: O_26  and  C_27 
REMARK    9  A    between atoms: C_27  and  C_28 
ROOT
HETATM    1  N   UNL     1      -1.142   1.701   0.389  1.00  0.00    -0.231 N 
HETATM    2  C   UNL     1      -1.768   2.916   0.716  1.00  0.00     0.348 C 
HETATM    3  O   UNL     1      -2.943   2.963   1.053  1.00  0.00    -0.245 OA
HETATM    4  N   UNL     1      -0.932   3.989   0.593  1.00  0.00    -0.136 N 
HETATM    5  H   UNL     1      -0.306   1.793  -0.187  1.00  0.00     0.183 HD
HETATM    6  H   UNL     1       0.007   3.874   0.256  1.00  0.00     0.189 HD
ENDROOT
BRANCH   1   7
HETATM    7  S   UNL     1      -2.068   0.385  -0.055  1.00  0.00     0.268 S 
HETATM    8  O   UNL     1      -2.569   0.668  -1.384  1.00  0.00    -0.200 OA
HETATM    9  O   UNL     1      -2.945   0.080   1.057  1.00  0.00    -0.200 OA
BRANCH   7  10
HETATM   10  C   UNL     1      -1.071  -1.099  -0.248  1.00  0.00     0.102 A 
HETATM   11  C   UNL     1       0.335  -1.141  -0.200  1.00  0.00     0.063 A 
HETATM   12  C   UNL     1       0.989  -2.397  -0.222  1.00  0.00     0.019 A 
HETATM   13  C   UNL     1       0.277  -3.588  -0.300  1.00  0.00     0.002 A 
HETATM   14  C   UNL     1      -1.103  -3.550  -0.400  1.00  0.00     0.008 A 
HETATM   15  C   UNL     1      -1.795  -2.324  -0.395  1.00  0.00    -0.038 A 
HETATM   16  C   UNL     1      -3.294  -2.437  -0.560  1.00  0.00     0.050 C 
BRANCH  11  17
HETATM   17  C   UNL     1       1.221   0.048  -0.263  1.00  0.00     0.294 C 
HETATM   18  O   UNL     1       0.917   1.095  -0.814  1.00  0.00    -0.259 OA
BRANCH  17  19
HETATM   19  O   UNL     1       2.401  -0.200   0.356  1.00  0.00    -0.322 OA
HETATM   20  C   UNL     1       3.381   0.840   0.272  1.00  0.00     0.213 C 
ENDBRANCH  17  19
ENDBRANCH  11  17
ENDBRANCH   7  10
ENDBRANCH   1   7
BRANCH   4  21
HETATM   21  C   UNL     1      -1.298   5.305   0.868  1.00  0.00     0.750 A 
HETATM   22  N   UNL     1      -2.484   5.560   1.381  1.00  0.00    -0.017 NA
HETATM   23  C   UNL     1      -2.727   6.833   1.613  1.00  0.00     0.302 A 
HETATM   24  N   UNL     1      -1.896   7.830   1.370  1.00  0.00    -0.017 NA
HETATM   25  C   UNL     1      -0.713   7.499   0.868  1.00  0.00     0.743 A 
HETATM   26  N   UNL     1      -0.379   6.231   0.604  1.00  0.00     0.131 NA
BRANCH  23  27
HETATM   27  O   UNL     1      -3.932   7.200   2.169  1.00  0.00    -0.309 OA
BRANCH  27  28
HETATM   28  C   UNL     1      -4.750   6.070   2.510  1.00  0.00     0.296 C 
BRANCH  28  29
HETATM   29  C   UNL     1      -6.050   6.540   3.130  1.00  0.00     0.409 C 
HETATM   30  F   UNL     1      -5.837   7.251   4.260  1.00  0.00    -0.169 F 
HETATM   31  F   UNL     1      -6.758   7.316   2.279  1.00  0.00    -0.169 F 
HETATM   32  F   UNL     1      -6.833   5.487   3.461  1.00  0.00    -0.169 F 
ENDBRANCH  28  29
ENDBRANCH  27  28
ENDBRANCH  23  27
BRANCH  25  33
HETATM   33  N   UNL     1       0.223   8.503   0.693  1.00  0.00    -0.222 N 
HETATM   34  C   UNL     1      -0.227   9.889   0.729  1.00  0.00     0.168 C 
HETATM   35  C   UNL     1       1.433   8.238  -0.061  1.00  0.00     0.168 C 
ENDBRANCH  25  33
ENDBRANCH   4  21
TORSDOF 9
