REMARK  2 active torsions:
REMARK  status: ('A' for Active; 'I' for Inactive)
REMARK    1  A    between atoms: C_2  and  C_3 
REMARK    2  A    between atoms: C_2  and  S_12 
ROOT
HETATM    1  C   UNL     1       2.939   0.736  -0.969  1.00  0.00     0.042 A 
HETATM    2  C   UNL     1       2.700   2.120  -0.869  1.00  0.00     0.070 A 
HETATM    3  C   UNL     1       3.267   3.035  -1.766  1.00  0.00     0.099 A 
HETATM    4  C   UNL     1       4.092   2.551  -2.802  1.00  0.00     0.035 A 
HETATM    5  C   UNL     1       4.320   1.180  -2.930  1.00  0.00     0.003 A 
HETATM    6  C   UNL     1       3.745   0.286  -2.032  1.00  0.00     0.017 A 
HETATM    7  N   UNL     1       2.958   4.369  -1.531  1.00  0.00    -0.142 NA
HETATM    8  N   UNL     1       2.170   4.516  -0.483  1.00  0.00    -0.110 NA
HETATM    9  S   UNL     1       1.780   3.069   0.248  1.00  0.00     0.037 SA
ENDROOT
BRANCH   1  10
HETATM   10  C   UNL     1       2.345  -0.199   0.015  1.00  0.00     0.220 C 
HETATM   11  O   UNL     1       1.244   0.017   0.504  1.00  0.00    -0.280 OA
BRANCH  10  12
HETATM   12  S   UNL     1       3.260  -1.624   0.489  1.00  0.00    -0.092 SA
HETATM   13  C   UNL     1       4.780  -0.840   1.070  1.00  0.00     0.099 C 
ENDBRANCH  10  12
ENDBRANCH   1  10
TORSDOF 2
