REMARK  2 active torsions:
REMARK  status: ('A' for Active; 'I' for Inactive)
REMARK    1  A    between atoms: C_1  and  C_7 
REMARK    2  A    between atoms: C_6  and  C_9 
ROOT
HETATM    1  C   UNL     1      -1.452  -0.079  -0.101  1.00  0.00     0.015 A 
HETATM    2  C   UNL     1      -0.783   1.157  -0.038  1.00  0.00     0.015 A 
HETATM    3  C   UNL     1       0.609   1.219   0.025  1.00  0.00     0.001 A 
HETATM    4  C   UNL     1       1.355   0.046   0.026  1.00  0.00     0.001 A 
HETATM    5  C   UNL     1       0.707  -1.189  -0.036  1.00  0.00     0.015 A 
HETATM    6  C   UNL     1      -0.697  -1.261  -0.100  1.00  0.00     0.015 A 
ENDROOT
BRANCH   1   7
HETATM    7  C   UNL     1      -2.933  -0.033  -0.163  1.00  0.00     0.271 C 
HETATM    8  O   UNL     1      -3.534   1.040  -0.145  1.00  0.00    -0.301 OA
ENDBRANCH   1   7
BRANCH   6   9
HETATM    9  C   UNL     1      -1.260  -2.630  -0.161  1.00  0.00     0.271 C 
HETATM   10  O   UNL     1      -2.453  -2.877  -0.241  1.00  0.00    -0.301 OA
ENDBRANCH   6   9
TORSDOF 2
