REMARK  0 active torsions:
REMARK  status: ('A' for Active; 'I' for Inactive)
ROOT
HETATM    1  N   UNL     1       2.512   0.123   0.000  1.00  0.00    -0.292 N 
HETATM    2  S   UNL     1       1.847  -1.442   0.001  1.00  0.00    -0.011 SA
HETATM    3  C   UNL     1       0.230   0.629   0.000  1.00  0.00     0.051 A 
HETATM    4  C   UNL     1       0.210  -0.765   0.000  1.00  0.00     0.037 A 
HETATM    5  C   UNL     1       1.605   1.160   0.000  1.00  0.00     0.263 A 
HETATM    6  C   UNL     1      -0.996  -1.448   0.000  1.00  0.00     0.021 A 
HETATM    7  C   UNL     1      -2.183  -0.707   0.000  1.00  0.00     0.001 A 
HETATM    8  C   UNL     1      -2.154   0.698  -0.000  1.00  0.00     0.001 A 
HETATM    9  C   UNL     1      -0.936   1.380  -0.000  1.00  0.00     0.018 A 
HETATM   10  O   UNL     1       1.879   2.348   0.000  1.00  0.00    -0.267 OA
HETATM   11  H   UNL     1       3.506   0.307   0.001  1.00  0.00     0.177 HD
ENDROOT
TORSDOF 0
