REMARK  6 active torsions:
REMARK  status: ('A' for Active; 'I' for Inactive)
REMARK    1  A    between atoms: O_1  and  C_2 
REMARK    2  A    between atoms: O_1  and  C_20 
REMARK       I    between atoms: C_2  and  N_3 
REMARK    3  A    between atoms: N_3  and  N_4 
REMARK    4  A    between atoms: N_4  and  C_8 
REMARK    5  A    between atoms: C_5  and  C_11 
REMARK    6  A    between atoms: C_10  and  O_17 
ROOT
HETATM    1  C   UNL     1       4.486   4.821  -3.275  1.00  0.00    -0.024 A 
HETATM    2  C   UNL     1       4.125   3.697  -2.512  1.00  0.00     0.039 A 
HETATM    3  C   UNL     1       3.776   6.009  -3.062  1.00  0.00     0.015 A 
HETATM    4  C   UNL     1       3.048   3.721  -1.604  1.00  0.00     0.057 A 
HETATM    5  C   UNL     1       2.740   6.075  -2.124  1.00  0.00     0.039 A 
HETATM    6  C   UNL     1       2.379   4.945  -1.383  1.00  0.00     0.090 A 
ENDROOT
BRANCH   4   7
HETATM    7  N   UNL     1       2.767   2.513  -0.881  1.00  0.00    -0.215 NA
HETATM    8  H   UNL     1       3.217   1.746  -1.375  1.00  0.00     0.147 HD
BRANCH   7   9
HETATM    9  N   UNL     1       1.374   2.261  -0.760  1.00  0.00    -0.165 NA
HETATM   10  C   UNL     1       0.859   1.465   0.245  1.00  0.00     0.352 C 
HETATM   11  O   UNL     1      -0.241   1.739   0.723  1.00  0.00    -0.244 OA
HETATM   12  H   UNL     1       0.810   3.108  -0.837  1.00  0.00     0.152 HD
BRANCH  10  13
HETATM   13  O   UNL     1       1.538   0.373   0.690  1.00  0.00    -0.303 OA
BRANCH  13  14
HETATM   14  C   UNL     1       2.576  -0.360   0.005  1.00  0.00     0.125 C 
HETATM   15  C   UNL     1       2.890  -1.566   0.889  1.00  0.00     0.040 C 
HETATM   16  C   UNL     1       2.128  -0.841  -1.371  1.00  0.00     0.040 C 
ENDBRANCH  13  14
ENDBRANCH  10  13
ENDBRANCH   7   9
ENDBRANCH   4   7
BRANCH   6  17
HETATM   17  O   UNL     1       1.354   4.938  -0.468  1.00  0.00    -0.354 OA
HETATM   18  C   UNL     1       0.966   6.194   0.076  1.00  0.00     0.210 C 
ENDBRANCH   6  17
BRANCH   1  19
HETATM   19  C   UNL     1       5.554   4.738  -4.287  1.00  0.00    -0.026 A 
HETATM   20  C   UNL     1       6.597   5.678  -4.331  1.00  0.00     0.012 A 
HETATM   21  C   UNL     1       7.601   5.595  -5.301  1.00  0.00     0.001 A 
HETATM   22  C   UNL     1       7.581   4.570  -6.243  1.00  0.00     0.000 A 
HETATM   23  C   UNL     1       6.556   3.628  -6.219  1.00  0.00     0.001 A 
HETATM   24  C   UNL     1       5.553   3.713  -5.250  1.00  0.00     0.012 A 
ENDBRANCH   1  19
TORSDOF 6
