REMARK  8 active torsions:
REMARK  status: ('A' for Active; 'I' for Inactive)
REMARK    1  A    between atoms: C_4  and  O_9 
REMARK    2  A    between atoms: O_9  and  C_10 
REMARK    3  A    between atoms: C_12  and  O_16 
REMARK    4  A    between atoms: O_16  and  C_17 
REMARK    5  A    between atoms: C_18  and  C_23 
REMARK    6  A    between atoms: C_23  and  C_27 
REMARK    7  A    between atoms: C_24  and  O_25 
REMARK    8  A    between atoms: C_27  and  O_29 
ROOT
HETATM    1  N   UNL     1       1.818  -0.560   1.522  1.00  0.00    -0.191 NA
HETATM    2  C   UNL     1       2.902  -0.358   1.152  1.00  0.00     0.102 C 
HETATM    3  C   UNL     1       4.242  -0.252   0.660  1.00  0.00     0.078 A 
HETATM    4  C   UNL     1       4.989   0.945   0.695  1.00  0.00     0.098 A 
HETATM    5  C   UNL     1       6.321   0.859   0.263  1.00  0.00     0.039 A 
HETATM    6  C   UNL     1       6.879  -0.333  -0.219  1.00  0.00     0.003 A 
HETATM    7  C   UNL     1       6.121  -1.489  -0.276  1.00  0.00     0.002 A 
HETATM    8  C   UNL     1       4.805  -1.449   0.163  1.00  0.00     0.025 A 
ENDROOT
BRANCH   4   9
HETATM    9  O   UNL     1       4.359   2.083   1.194  1.00  0.00    -0.290 OA
BRANCH   9  10
HETATM   10  C   UNL     1       4.893   3.377   1.095  1.00  0.00     0.175 C 
HETATM   11  C   UNL     1       4.090   4.439   1.477  1.00  0.00     0.116 C 
HETATM   12  C   UNL     1       4.579   5.700   1.188  1.00  0.00     0.175 C 
HETATM   13  N   UNL     1       5.846   5.904   0.785  1.00  0.00    -0.217 NA
HETATM   14  C   UNL     1       6.565   4.820   0.524  1.00  0.00     0.238 C 
HETATM   15  N   UNL     1       6.126   3.567   0.610  1.00  0.00    -0.217 NA
BRANCH  12  16
HETATM   16  O   UNL     1       3.911   6.881   1.347  1.00  0.00    -0.291 OA
BRANCH  16  17
HETATM   17  C   UNL     1       2.622   7.137   0.935  1.00  0.00     0.089 C 
HETATM   18  C   UNL     1       1.726   6.354   0.192  1.00  0.00     0.016 C 
HETATM   19  C   UNL     1       0.370   6.750   0.139  1.00  0.00     0.015 C 
HETATM   20  C   UNL     1      -0.057   7.968   0.662  1.00  0.00     0.001 C 
HETATM   21  C   UNL     1       0.876   8.836   1.205  1.00  0.00     0.003 C 
HETATM   22  C   UNL     1       2.198   8.414   1.353  1.00  0.00     0.038 C 
BRANCH  18  23
HETATM   23  C   UNL     1       2.076   5.156  -0.602  1.00  0.00     0.074 C 
HETATM   24  C   UNL     1       2.952   5.247  -1.622  1.00  0.00     0.152 C 
BRANCH  24  25
HETATM   25  O   UNL     1       3.488   6.438  -2.051  1.00  0.00    -0.367 OA
HETATM   26  C   UNL     1       4.840   6.345  -2.491  1.00  0.00     0.208 C 
ENDBRANCH  24  25
BRANCH  23  27
HETATM   27  C   UNL     1       1.406   3.870  -0.251  1.00  0.00     0.295 C 
HETATM   28  O   UNL     1       0.714   3.746   0.752  1.00  0.00    -0.259 OA
BRANCH  27  29
HETATM   29  O   UNL     1       1.649   2.889  -1.154  1.00  0.00    -0.322 OA
HETATM   30  C   UNL     1       0.969   1.674  -0.840  1.00  0.00     0.213 C 
ENDBRANCH  27  29
ENDBRANCH  23  27
ENDBRANCH  18  23
ENDBRANCH  16  17
ENDBRANCH  12  16
ENDBRANCH   9  10
ENDBRANCH   4   9
TORSDOF 8
