REMARK  7 active torsions:
REMARK  status: ('A' for Active; 'I' for Inactive)
REMARK    1  A    between atoms: N_1  and  C_2 
REMARK    2  A    between atoms: N_7  and  C_13 
REMARK    3  A    between atoms: C_10  and  C_16 
REMARK    4  A    between atoms: C_16  and  C_20 
REMARK    5  A    between atoms: C_20  and  C_21 
REMARK    6  A    between atoms: C_21  and  O_23 
REMARK    7  A    between atoms: O_23  and  C_25 
ROOT
HETATM    1  C   UNL     1      -0.290  -2.529  -0.205  1.00  0.00     0.102 A 
HETATM    2  C   UNL     1       0.578  -3.464   0.386  1.00  0.00     0.044 A 
HETATM    3  C   UNL     1      -1.475  -3.002  -0.774  1.00  0.00     0.146 A 
HETATM    4  C   UNL     1       0.286  -4.839   0.432  1.00  0.00    -0.032 A 
HETATM    5  C   UNL     1      -1.768  -4.364  -0.793  1.00  0.00     0.069 A 
HETATM    6  F   UNL     1      -2.336  -2.175  -1.385  1.00  0.00    -0.204 F 
HETATM    7  C   UNL     1      -0.892  -5.276  -0.201  1.00  0.00     0.043 A 
HETATM    8 CL   UNL     1      -1.304  -6.952  -0.307  1.00  0.00    -0.084 Cl
ENDROOT
BRANCH   1   9
HETATM    9  N   UNL     1       0.046  -1.162  -0.191  1.00  0.00    -0.178 N 
HETATM   10  C   UNL     1       1.310  -0.571  -0.001  1.00  0.00     0.355 A 
HETATM   11  N   UNL     1       1.066   0.769   0.081  1.00  0.00    -0.226 N 
HETATM   12  O   UNL     1       2.401  -1.125   0.025  1.00  0.00    -0.244 OA
HETATM   13  C   UNL     1      -0.250   0.923  -0.140  1.00  0.00     0.132 A 
HETATM   14  N   UNL     1      -0.911  -0.185  -0.306  1.00  0.00    -0.149 NA
HETATM   15  C   UNL     1      -0.894   2.269  -0.179  1.00  0.00     0.093 C 
BRANCH  11  16
HETATM   16  C   UNL     1       2.069   1.778   0.059  1.00  0.00     0.470 C 
HETATM   17  F   UNL     1       1.784   2.720   0.994  1.00  0.00    -0.190 F 
HETATM   18  F   UNL     1       3.299   1.306   0.364  1.00  0.00    -0.190 F 
ENDBRANCH  11  16
ENDBRANCH   1   9
BRANCH   4  19
HETATM   19  C   UNL     1       1.235  -5.829   1.089  1.00  0.00     0.070 C 
BRANCH  19  20
HETATM   20  C   UNL     1       2.294  -5.313   2.089  1.00  0.00     0.186 C 
HETATM   21 CL   UNL     1       3.548  -6.589   2.232  1.00  0.00    -0.114 Cl
BRANCH  20  22
HETATM   22  C   UNL     1       1.665  -4.952   3.440  1.00  0.00     0.277 C 
HETATM   23  O   UNL     1       0.468  -4.710   3.576  1.00  0.00    -0.264 OA
BRANCH  22  24
HETATM   24  O   UNL     1       2.538  -4.652   4.441  1.00  0.00    -0.321 OA
BRANCH  24  25
HETATM   25  C   UNL     1       3.139  -5.756   5.134  1.00  0.00     0.174 C 
HETATM   26  C   UNL     1       2.984  -5.583   6.633  1.00  0.00     0.034 C 
ENDBRANCH  24  25
ENDBRANCH  22  24
ENDBRANCH  20  22
ENDBRANCH  19  20
ENDBRANCH   4  19
TORSDOF 7
