REMARK  18 active torsions:
REMARK  status: ('A' for Active; 'I' for Inactive)
REMARK    1  A    between atoms: N_2  and  C_3 
REMARK    2  A    between atoms: N_2  and  C_13 
REMARK    3  A    between atoms: C_3  and  C_4 
REMARK    4  A    between atoms: C_4  and  C_5 
REMARK    5  A    between atoms: C_5  and  C_6 
REMARK    6  A    between atoms: C_6  and  C_7 
REMARK    7  A    between atoms: C_7  and  C_8 
REMARK    8  A    between atoms: C_8  and  C_9 
REMARK    9  A    between atoms: C_9  and  C_10 
REMARK   10  A    between atoms: C_10  and  C_11 
REMARK   11  A    between atoms: C_13  and  C_14 
REMARK   12  A    between atoms: C_14  and  C_15 
REMARK   13  A    between atoms: C_15  and  C_16 
REMARK   14  A    between atoms: C_16  and  C_17 
REMARK   15  A    between atoms: C_17  and  C_18 
REMARK   16  A    between atoms: C_18  and  C_19 
REMARK   17  A    between atoms: C_19  and  C_20 
REMARK   18  A    between atoms: C_20  and  C_21 
ROOT
HETATM    1  C   UNL     1       0.856  -0.067  -0.295  1.00  0.00     0.272 C 
HETATM    2  N   UNL     1       2.381  -0.046  -0.203  1.00  0.00    -0.075 N 
HETATM    3  C   UNL     1       2.944   0.300  -1.587  1.00  0.00     0.272 C 
ENDROOT
BRANCH   2   4
HETATM    4  C   UNL     1       2.870   0.972   0.847  1.00  0.00     0.236 C 
BRANCH   4   5
HETATM    5  C   UNL     1       2.467   2.416   0.551  1.00  0.00     0.028 C 
BRANCH   5   6
HETATM    6  C   UNL     1       2.944   3.341   1.676  1.00  0.00     0.002 C 
BRANCH   6   7
HETATM    7  C   UNL     1       2.471   4.776   1.447  1.00  0.00     0.000 C 
BRANCH   7   8
HETATM    8  C   UNL     1       2.955   5.710   2.556  1.00  0.00     0.000 C 
BRANCH   8   9
HETATM    9  C   UNL     1       2.457   7.136   2.320  1.00  0.00     0.000 C 
BRANCH   9  10
HETATM   10  C   UNL     1       2.949   8.093   3.406  1.00  0.00     0.000 C 
BRANCH  10  11
HETATM   11  C   UNL     1       2.447   9.514   3.148  1.00  0.00    -0.000 C 
BRANCH  11  12
HETATM   12  C   UNL     1       2.940  10.487   4.218  1.00  0.00    -0.005 C 
HETATM   13  C   UNL     1       2.442  11.899   3.953  1.00  0.00     0.005 C 
ENDBRANCH  11  12
ENDBRANCH  10  11
ENDBRANCH   9  10
ENDBRANCH   8   9
ENDBRANCH   7   8
ENDBRANCH   6   7
ENDBRANCH   5   6
ENDBRANCH   4   5
ENDBRANCH   2   4
BRANCH   2  14
HETATM   14  C   UNL     1       2.915  -1.463   0.150  1.00  0.00     0.236 C 
BRANCH  14  15
HETATM   15  C   UNL     1       2.431  -1.976   1.507  1.00  0.00     0.028 C 
BRANCH  15  16
HETATM   16  C   UNL     1       2.945  -3.392   1.782  1.00  0.00     0.002 C 
BRANCH  16  17
HETATM   17  C   UNL     1       2.470  -3.873   3.154  1.00  0.00     0.000 C 
BRANCH  17  18
HETATM   18  C   UNL     1       2.973  -5.281   3.469  1.00  0.00     0.000 C 
BRANCH  18  19
HETATM   19  C   UNL     1       2.477  -5.740   4.841  1.00  0.00     0.000 C 
BRANCH  19  20
HETATM   20  C   UNL     1       2.967  -7.149   5.171  1.00  0.00     0.000 C 
BRANCH  20  21
HETATM   21  C   UNL     1       2.456  -7.603   6.540  1.00  0.00    -0.000 C 
BRANCH  21  22
HETATM   22  C   UNL     1       2.938  -9.014   6.873  1.00  0.00    -0.005 C 
HETATM   23  C   UNL     1       2.429  -9.469   8.231  1.00  0.00     0.005 C 
ENDBRANCH  21  22
ENDBRANCH  20  21
ENDBRANCH  19  20
ENDBRANCH  18  19
ENDBRANCH  17  18
ENDBRANCH  16  17
ENDBRANCH  15  16
ENDBRANCH  14  15
ENDBRANCH   2  14
TORSDOF 18
