REMARK  6 active torsions:
REMARK  status: ('A' for Active; 'I' for Inactive)
REMARK    1  A    between atoms: C_5  and  C_8 
REMARK    2  A    between atoms: C_8  and  C_9 
REMARK    3  A    between atoms: C_9  and  C_10 
REMARK    4  A    between atoms: C_10  and  C_11 
REMARK    5  A    between atoms: C_10  and  C_19 
REMARK    6  A    between atoms: C_19  and  N_20 
ROOT
HETATM    1  C   UNL     1       8.970  -1.374  -1.032  1.00  0.00     0.081 C 
HETATM    2  C   UNL     1       9.722  -0.577   0.021  1.00  0.00    -0.004 C 
HETATM    3  N   UNL     1      10.346   0.084   0.895  1.00  0.00    -0.100 N 
ENDROOT
BRANCH   1   4
HETATM    4  C   UNL     1       7.466  -1.472  -0.614  1.00  0.00     0.035 C 
BRANCH   4   5
HETATM    5  C   UNL     1       6.740  -0.115  -0.508  1.00  0.00     0.040 C 
BRANCH   5   6
HETATM    6  C   UNL     1       5.246  -0.138  -0.259  1.00  0.00    -0.058 A 
HETATM    7  C   UNL     1       4.583   1.102  -0.189  1.00  0.00     0.009 A 
HETATM    8  C   UNL     1       3.201   1.171  -0.004  1.00  0.00     0.024 A 
HETATM    9  C   UNL     1       2.465  -0.002   0.114  1.00  0.00     0.034 A 
HETATM   10 CL   UNL     1       0.760   0.075   0.327  1.00  0.00    -0.084 Cl
HETATM   11  C   UNL     1       3.102  -1.239   0.056  1.00  0.00     0.024 A 
HETATM   12  C   UNL     1       4.488  -1.307  -0.127  1.00  0.00     0.009 A 
ENDBRANCH   5   6
ENDBRANCH   4   5
ENDBRANCH   1   4
BRANCH   1  13
HETATM   13  C   UNL     1       9.046  -0.721  -2.436  1.00  0.00    -0.035 A 
HETATM   14  C   UNL     1       9.390   0.638  -2.596  1.00  0.00     0.009 A 
HETATM   15  C   UNL     1       9.422   1.237  -3.857  1.00  0.00     0.001 A 
HETATM   16  C   UNL     1       9.118   0.493  -4.990  1.00  0.00     0.000 A 
HETATM   17  C   UNL     1       8.773  -0.849  -4.861  1.00  0.00     0.001 A 
HETATM   18  C   UNL     1       8.727  -1.448  -3.599  1.00  0.00     0.009 A 
ENDBRANCH   1  13
BRANCH   1  19
HETATM   19  C   UNL     1       9.584  -2.810  -1.000  1.00  0.00     0.180 C 
BRANCH  19  20
HETATM   20  N   UNL     1      10.972  -2.955  -1.400  1.00  0.00    -0.260 N 
HETATM   21  N   UNL     1      11.790  -1.905  -1.565  1.00  0.00    -0.165 NA
HETATM   22  C   UNL     1      12.941  -2.502  -1.880  1.00  0.00     0.256 A 
HETATM   23  N   UNL     1      12.892  -3.865  -1.917  1.00  0.00    -0.234 NA
HETATM   24  C   UNL     1      11.643  -4.123  -1.604  1.00  0.00     0.229 A 
ENDBRANCH  19  20
ENDBRANCH   1  19
TORSDOF 6
