REMARK  3 active torsions:
REMARK  status: ('A' for Active; 'I' for Inactive)
REMARK    1  A    between atoms: C_1  and  C_7 
REMARK       I    between atoms: C_7  and  N_9 
REMARK    2  A    between atoms: N_9  and  C_10 
REMARK    3  A    between atoms: C_15  and  O_18 
ROOT
HETATM    1  C   UNL     1       1.355   2.659   0.098  1.00  0.00     0.230 C 
HETATM    2  O   UNL     1       1.549   3.563  -0.716  1.00  0.00    -0.272 OA
HETATM    3  N   UNL     1       1.650   2.769   1.445  1.00  0.00    -0.325 N 
HETATM    4  H   UNL     1       1.707   1.919   1.991  1.00  0.00     0.169 HD
ENDROOT
BRANCH   3   5
HETATM    5  C   UNL     1       2.133   3.929   2.109  1.00  0.00     0.058 A 
HETATM    6  C   UNL     1       2.806   3.782   3.341  1.00  0.00     0.085 A 
HETATM    7  C   UNL     1       3.305   4.909   4.013  1.00  0.00     0.091 A 
HETATM    8 CL   UNL     1       3.037   2.183   3.990  1.00  0.00    -0.080 Cl
HETATM    9  C   UNL     1       3.101   6.180   3.468  1.00  0.00     0.089 A 
HETATM   10 CL   UNL     1       4.180   4.787   5.504  1.00  0.00    -0.079 Cl
HETATM   11  C   UNL     1       2.413   6.338   2.273  1.00  0.00     0.040 A 
HETATM   12  C   UNL     1       1.935   5.216   1.594  1.00  0.00     0.034 A 
BRANCH   9  13
HETATM   13  O   UNL     1       3.560   7.319   4.073  1.00  0.00    -0.359 OA
HETATM   14  H   UNL     1       4.044   7.054   4.877  1.00  0.00     0.217 HD
ENDBRANCH   9  13
ENDBRANCH   3   5
BRANCH   1  15
HETATM   15  C   UNL     1       0.702   1.318  -0.339  1.00  0.00     0.037 C 
HETATM   16  C   UNL     1       1.504   0.084   0.138  1.00  0.00     0.019 C 
HETATM   17  C   UNL     1       0.789  -1.244  -0.133  1.00  0.00     0.001 C 
HETATM   18  C   UNL     1      -0.630  -1.252   0.430  1.00  0.00     0.000 C 
HETATM   19  C   UNL     1      -1.448  -0.053  -0.038  1.00  0.00     0.001 C 
HETATM   20  C   UNL     1      -0.729   1.267   0.243  1.00  0.00     0.019 C 
HETATM   21  C   UNL     1       0.644   1.319  -1.887  1.00  0.00     0.025 C 
ENDBRANCH   1  15
TORSDOF 3
