REMARK  3 active torsions:
REMARK  status: ('A' for Active; 'I' for Inactive)
REMARK    1  A    between atoms: C_2  and  C_3 
REMARK    2  A    between atoms: C_6  and  O_8 
REMARK    3  A    between atoms: O_8  and  C_9 
ROOT
HETATM    1  C   UNL     1       3.287   0.577  -1.719  1.00  0.00     0.192 A 
HETATM    2  N   UNL     1       3.752  -0.458  -2.439  1.00  0.00    -0.188 NA
HETATM    3  S   UNL     1       4.214   0.137  -3.922  1.00  0.00     0.059 SA
HETATM    4  C   UNL     1       3.756   1.748  -3.554  1.00  0.00     0.229 A 
HETATM    5  N   UNL     1       3.270   1.843  -2.336  1.00  0.00    -0.196 NA
ENDROOT
BRANCH   1   6
HETATM    6  C   UNL     1       2.745   0.408  -0.308  1.00  0.00     0.251 C 
HETATM    7 CL   UNL     1       0.959   0.553  -0.355  1.00  0.00    -0.075 Cl
HETATM    8 CL   UNL     1       3.413   1.686   0.758  1.00  0.00    -0.075 Cl
HETATM    9 CL   UNL     1       3.170  -1.180   0.410  1.00  0.00    -0.075 Cl
ENDBRANCH   1   6
BRANCH   4  10
HETATM   10  O   UNL     1       3.839   2.835  -4.323  1.00  0.00    -0.328 OA
BRANCH  10  11
HETATM   11  C   UNL     1       4.327   2.667  -5.650  1.00  0.00     0.173 C 
HETATM   12  C   UNL     1       4.319   4.021  -6.335  1.00  0.00     0.034 C 
ENDBRANCH  10  11
ENDBRANCH   4  10
TORSDOF 3
