REMARK  9 active torsions:
REMARK  status: ('A' for Active; 'I' for Inactive)
REMARK    1  A    between atoms: C_3  and  O_25 
REMARK    2  A    between atoms: C_4  and  C_8 
REMARK    3  A    between atoms: N_9  and  O_10 
REMARK    4  A    between atoms: O_10  and  C_11 
REMARK    5  A    between atoms: C_11  and  C_12 
REMARK    6  A    between atoms: C_15  and  C_18 
REMARK    7  A    between atoms: C_18  and  O_20 
REMARK    8  A    between atoms: O_20  and  C_21 
REMARK    9  A    between atoms: O_25  and  C_26 
ROOT
HETATM    1  C   UNL     1       5.632  -2.035  -0.113  1.00  0.00     0.164 C 
HETATM    2  N   UNL     1       5.254  -3.270  -0.022  1.00  0.00    -0.145 NA
ENDROOT
BRANCH   2   3
HETATM    3  O   UNL     1       6.390  -4.086  -0.041  1.00  0.00    -0.252 OA
BRANCH   3   4
HETATM    4  C   UNL     1       5.996  -5.462  -0.009  1.00  0.00     0.242 C 
BRANCH   4   5
HETATM    5  C   UNL     1       7.213  -6.355  -0.138  1.00  0.00    -0.032 A 
HETATM    6  C   UNL     1       8.497  -5.817  -0.300  1.00  0.00     0.010 A 
HETATM    7  C   UNL     1       9.601  -6.647  -0.471  1.00  0.00     0.018 A 
HETATM    8  C   UNL     1       9.450  -8.038  -0.484  1.00  0.00     0.039 A 
HETATM    9  C   UNL     1       8.178  -8.591  -0.296  1.00  0.00     0.018 A 
HETATM   10  C   UNL     1       7.067  -7.752  -0.124  1.00  0.00     0.010 A 
BRANCH   8  11
HETATM   11  C   UNL     1      10.673  -8.841  -0.740  1.00  0.00     0.294 C 
HETATM   12  O   UNL     1      11.758  -8.316  -0.949  1.00  0.00    -0.259 OA
BRANCH  11  13
HETATM   13  O   UNL     1      10.413 -10.169  -0.739  1.00  0.00    -0.307 OA
BRANCH  13  14
HETATM   14  C   UNL     1      11.482 -11.098  -1.066  1.00  0.00     0.060 C 
HETATM   15  C   UNL     1      11.947 -10.904  -2.516  1.00  0.00     0.046 C 
HETATM   16  C   UNL     1      12.647 -10.998  -0.071  1.00  0.00     0.046 C 
HETATM   17  C   UNL     1      10.861 -12.497  -0.939  1.00  0.00     0.046 C 
ENDBRANCH  13  14
ENDBRANCH  11  13
ENDBRANCH   8  11
ENDBRANCH   4   5
ENDBRANCH   3   4
ENDBRANCH   2   3
BRANCH   1  18
HETATM   18  C   UNL     1       4.662  -0.965  -0.080  1.00  0.00     0.062 C 
HETATM   19  C   UNL     1       3.280  -1.104  -0.007  1.00  0.00     0.180 C 
HETATM   20  N   UNL     1       2.809   0.173   0.190  1.00  0.00    -0.251 N 
HETATM   21  C   UNL     1       1.523   0.631   0.657  1.00  0.00     0.182 C 
HETATM   22  N   UNL     1       3.763   1.121   0.040  1.00  0.00    -0.175 NA
HETATM   23  C   UNL     1       4.902   0.432  -0.068  1.00  0.00     0.067 C 
HETATM   24  C   UNL     1       6.192   1.167  -0.111  1.00  0.00     0.073 C 
BRANCH  19  25
HETATM   25  O   UNL     1       2.622  -2.261   0.049  1.00  0.00    -0.291 OA
BRANCH  25  26
HETATM   26  C   UNL     1       1.322  -2.573  -0.215  1.00  0.00     0.077 A 
HETATM   27  C   UNL     1       0.949  -3.836   0.262  1.00  0.00     0.037 A 
HETATM   28  C   UNL     1      -0.357  -4.299   0.121  1.00  0.00     0.003 A 
HETATM   29  C   UNL     1      -1.306  -3.490  -0.493  1.00  0.00     0.000 A 
HETATM   30  C   UNL     1      -0.928  -2.255  -1.023  1.00  0.00     0.003 A 
HETATM   31  C   UNL     1       0.398  -1.816  -0.923  1.00  0.00     0.037 A 
ENDBRANCH  25  26
ENDBRANCH  19  25
ENDBRANCH   1  18
TORSDOF 9
