REMARK  9 active torsions:
REMARK  status: ('A' for Active; 'I' for Inactive)
REMARK    1  A    between atoms: N_1  and  C_2 
REMARK    2  A    between atoms: C_11  and  O_17 
REMARK    3  A    between atoms: O_17  and  C_21 
REMARK    4  A    between atoms: C_21  and  C_22 
REMARK    5  A    between atoms: C_22  and  O_23 
REMARK    6  A    between atoms: O_23  and  C_25 
REMARK    7  A    between atoms: C_25  and  C_26 
REMARK    8  A    between atoms: C_26  and  C_27 
REMARK    9  A    between atoms: C_27  and  C_28 
ROOT
HETATM    1  C   UNL     1       3.772  -0.050  -0.014  1.00  0.00     0.087 A 
HETATM    2  C   UNL     1       4.497   1.166   0.013  1.00  0.00     0.072 A 
HETATM    3  C   UNL     1       4.545  -1.224  -0.083  1.00  0.00     0.145 A 
HETATM    4  C   UNL     1       5.900   1.211  -0.041  1.00  0.00     0.093 A 
HETATM    5  C   UNL     1       5.936  -1.200  -0.128  1.00  0.00     0.071 A 
HETATM    6  F   UNL     1       4.007  -2.445  -0.125  1.00  0.00    -0.204 F 
HETATM    7  C   UNL     1       6.612   0.009  -0.105  1.00  0.00     0.070 A 
HETATM    8 CL   UNL     1       8.333  -0.045  -0.165  1.00  0.00    -0.081 Cl
ENDROOT
BRANCH   1   9
HETATM    9  N   UNL     1       2.333  -0.050   0.019  1.00  0.00    -0.241 N 
HETATM   10  C   UNL     1       1.511  -1.151   0.064  1.00  0.00     0.262 A 
HETATM   11  C   UNL     1       0.127  -0.670   0.052  1.00  0.00     0.022 A 
HETATM   12  O   UNL     1       1.732  -2.349   0.120  1.00  0.00    -0.267 OA
HETATM   13  C   UNL     1      -1.080  -1.518   0.064  1.00  0.00     0.045 C 
HETATM   14  C   UNL     1       0.148   0.653   0.009  1.00  0.00     0.022 A 
HETATM   15  C   UNL     1      -2.376  -0.726  -0.158  1.00  0.00     0.005 C 
HETATM   16  C   UNL     1      -2.357   0.778   0.170  1.00  0.00     0.005 C 
HETATM   17  C   UNL     1      -1.034   1.534  -0.033  1.00  0.00     0.045 C 
HETATM   18  C   UNL     1       1.547   1.081  -0.002  1.00  0.00     0.262 A 
HETATM   19  O   UNL     1       1.840   2.264  -0.040  1.00  0.00    -0.267 OA
ENDBRANCH   1   9
BRANCH   4  20
HETATM   20  O   UNL     1       6.631   2.367   0.015  1.00  0.00    -0.340 OA
BRANCH  20  21
HETATM   21  C   UNL     1       6.020   3.598  -0.333  1.00  0.00     0.286 C 
BRANCH  21  22
HETATM   22  C   UNL     1       6.912   4.832  -0.583  1.00  0.00     0.283 C 
HETATM   23  O   UNL     1       6.417   5.961  -0.535  1.00  0.00    -0.263 OA
BRANCH  22  24
HETATM   24  O   UNL     1       8.219   4.695  -0.924  1.00  0.00    -0.320 OA
BRANCH  24  25
HETATM   25  C   UNL     1       8.856   3.415  -0.949  1.00  0.00     0.178 C 
BRANCH  25  26
HETATM   26  C   UNL     1      10.323   3.523  -1.357  1.00  0.00     0.027 C 
BRANCH  26  27
HETATM   27  C   UNL     1      10.923   2.116  -1.367  1.00  0.00     0.002 C 
BRANCH  27  28
HETATM   28  C   UNL     1      12.406   2.074  -1.706  1.00  0.00    -0.004 C 
HETATM   29  C   UNL     1      12.900   0.633  -1.707  1.00  0.00     0.005 C 
ENDBRANCH  27  28
ENDBRANCH  26  27
ENDBRANCH  25  26
ENDBRANCH  24  25
ENDBRANCH  22  24
ENDBRANCH  21  22
ENDBRANCH  20  21
ENDBRANCH   4  20
TORSDOF 9
