REMARK  7 active torsions:
REMARK  status: ('A' for Active; 'I' for Inactive)
REMARK    1  A    between atoms: C_1  and  C_7 
REMARK    2  A    between atoms: C_7  and  N_8 
REMARK    3  A    between atoms: N_8  and  C_10 
REMARK    4  A    between atoms: N_8  and  C_26 
REMARK    5  A    between atoms: C_11  and  N_16 
REMARK    6  A    between atoms: C_12  and  N_19 
REMARK    7  A    between atoms: C_15  and  C_22 
ROOT
HETATM    1  C   UNL     1       0.827  -3.501   0.688  1.00  0.00     0.097 A 
HETATM    2  C   UNL     1      -0.216  -2.926   1.452  1.00  0.00     0.132 A 
HETATM    3  C   UNL     1       0.449  -4.660  -0.030  1.00  0.00     0.132 A 
HETATM    4  C   UNL     1      -1.550  -3.392   1.408  1.00  0.00     0.054 A 
HETATM    5  C   UNL     1      -0.872  -5.160  -0.059  1.00  0.00     0.054 A 
HETATM    6  C   UNL     1      -1.895  -4.495   0.621  1.00  0.00     0.052 A 
ENDROOT
BRANCH   1   7
HETATM    7  N   UNL     1       2.071  -2.900   0.552  1.00  0.00    -0.373 N 
BRANCH   7   8
HETATM    8  C   UNL     1       2.311  -1.910  -0.531  1.00  0.00     0.166 C 
BRANCH   8   9
HETATM    9  C   UNL     1       1.208  -0.893  -0.730  1.00  0.00     0.020 A 
HETATM   10  C   UNL     1       0.087  -1.242  -1.500  1.00  0.00     0.126 A 
HETATM   11  C   UNL     1      -0.991  -0.379  -1.682  1.00  0.00     0.043 A 
HETATM   12  F   UNL     1       0.016  -2.457  -2.061  1.00  0.00    -0.205 F 
HETATM   13  C   UNL     1      -0.959   0.890  -1.119  1.00  0.00     0.005 A 
HETATM   14  C   UNL     1       0.156   1.282  -0.380  1.00  0.00     0.024 A 
HETATM   15  C   UNL     1       1.229   0.399  -0.181  1.00  0.00     0.044 A 
HETATM   16 CL   UNL     1       2.553   0.972   0.769  1.00  0.00    -0.084 Cl
ENDBRANCH   8   9
ENDBRANCH   7   8
BRANCH   7  17
HETATM   17  C   UNL     1       3.207  -3.223   1.437  1.00  0.00     0.119 C 
HETATM   18  C   UNL     1       3.346  -4.694   1.801  1.00  0.00     0.026 C 
ENDBRANCH   7  17
ENDBRANCH   1   7
BRANCH   2  19
HETATM   19  N   UNL     1       0.022  -1.773   2.314  1.00  0.00    -0.113 N 
HETATM   20  O   UNL     1      -0.758  -0.818   2.199  1.00  0.00    -0.532 OA
HETATM   21  O   UNL     1       0.920  -1.861   3.163  1.00  0.00    -0.532 OA
ENDBRANCH   2  19
BRANCH   3  22
HETATM   22  N   UNL     1       1.421  -5.435  -0.785  1.00  0.00    -0.113 N 
HETATM   23  O   UNL     1       1.572  -6.615  -0.434  1.00  0.00    -0.532 OA
HETATM   24  O   UNL     1       1.977  -4.899  -1.751  1.00  0.00    -0.532 OA
ENDBRANCH   3  22
BRANCH   6  25
HETATM   25  C   UNL     1      -3.330  -4.955   0.525  1.00  0.00     0.417 C 
HETATM   26  F   UNL     1      -3.574  -5.707  -0.582  1.00  0.00    -0.166 F 
HETATM   27  F   UNL     1      -3.703  -5.709   1.591  1.00  0.00    -0.166 F 
HETATM   28  F   UNL     1      -4.205  -3.914   0.469  1.00  0.00    -0.166 F 
ENDBRANCH   6  25
TORSDOF 7
