REMARK  6 active torsions:
REMARK  status: ('A' for Active; 'I' for Inactive)
REMARK    1  A    between atoms: C_1  and  N_2 
REMARK       I    between atoms: N_2  and  C_5 
REMARK    2  A    between atoms: N_2  and  C_6 
REMARK    3  A    between atoms: C_5  and  C_9 
REMARK    4  A    between atoms: C_9  and  O_14 
REMARK    5  A    between atoms: O_14  and  C_16 
REMARK    6  A    between atoms: C_19  and  C_21 
ROOT
HETATM    1  N   UNL     1      -2.839  -0.057  -0.221  1.00  0.00    -0.312 N 
HETATM    2  C   UNL     1      -3.570  -1.173  -0.717  1.00  0.00     0.249 C 
HETATM    3  O   UNL     1      -3.052  -2.182  -1.196  1.00  0.00    -0.271 OA
ENDROOT
BRANCH   2   4
HETATM    4  C   UNL     1      -5.104  -1.187  -0.619  1.00  0.00     0.281 C 
BRANCH   4   5
HETATM    5  O   UNL     1      -5.752  -0.424  -1.625  1.00  0.00    -0.318 OA
BRANCH   5   6
HETATM    6  C   UNL     1      -7.051  -0.211  -1.399  1.00  0.00     0.231 A 
HETATM    7  S   UNL     1      -7.908   1.031  -2.208  1.00  0.00    -0.017 SA
HETATM    8  C   UNL     1      -9.207   0.747  -1.107  1.00  0.00     0.207 A 
HETATM    9  N   UNL     1      -9.003  -0.285  -0.308  1.00  0.00    -0.135 NA
HETATM   10  N   UNL     1      -7.750  -0.838  -0.479  1.00  0.00    -0.116 NA
BRANCH   8  11
HETATM   11  C   UNL     1     -10.392   1.651  -1.089  1.00  0.00     0.443 C 
HETATM   12  F   UNL     1     -11.085   1.622  -2.259  1.00  0.00    -0.164 F 
HETATM   13  F   UNL     1     -11.277   1.344  -0.105  1.00  0.00    -0.164 F 
HETATM   14  F   UNL     1     -10.034   2.950  -0.885  1.00  0.00    -0.164 F 
ENDBRANCH   8  11
ENDBRANCH   5   6
ENDBRANCH   4   5
ENDBRANCH   2   4
BRANCH   1  15
HETATM   15  C   UNL     1      -1.367  -0.161  -0.074  1.00  0.00     0.037 A 
HETATM   16  C   UNL     1      -0.538   0.980   0.046  1.00  0.00     0.033 A 
HETATM   17  C   UNL     1       0.856   0.894   0.173  1.00  0.00     0.044 A 
HETATM   18  C   UNL     1       1.466  -0.344   0.168  1.00  0.00     0.116 A 
HETATM   19  C   UNL     1       0.703  -1.492   0.069  1.00  0.00     0.044 A 
HETATM   20  F   UNL     1       2.799  -0.428   0.262  1.00  0.00    -0.206 F 
HETATM   21  C   UNL     1      -0.697  -1.399  -0.027  1.00  0.00     0.033 A 
ENDBRANCH   1  15
BRANCH   1  22
HETATM   22  C   UNL     1      -3.397   1.334  -0.194  1.00  0.00     0.085 C 
HETATM   23  C   UNL     1      -3.381   1.943  -1.601  1.00  0.00     0.032 C 
HETATM   24  C   UNL     1      -4.729   1.585   0.513  1.00  0.00     0.032 C 
ENDBRANCH   1  22
TORSDOF 6
