REMARK  6 active torsions:
REMARK  status: ('A' for Active; 'I' for Inactive)
REMARK    1  A    between atoms: C_3  and  N_7 
REMARK    2  A    between atoms: C_5  and  C_26 
REMARK    3  A    between atoms: N_7  and  C_9 
REMARK    4  A    between atoms: C_10  and  N_16 
REMARK    5  A    between atoms: C_11  and  N_19 
REMARK    6  A    between atoms: C_14  and  C_22 
ROOT
HETATM    1  C   UNL     1       0.576   3.639   0.106  1.00  0.00     0.102 A 
HETATM    2  C   UNL     1       1.342   4.810  -0.163  1.00  0.00     0.154 A 
HETATM    3  C   UNL     1      -0.780   3.887   0.386  1.00  0.00     0.133 A 
HETATM    4  C   UNL     1       0.793   6.111  -0.287  1.00  0.00     0.084 A 
HETATM    5  C   UNL     1      -1.344   5.179   0.301  1.00  0.00     0.056 A 
HETATM    6  C   UNL     1      -0.570   6.305  -0.037  1.00  0.00     0.074 A 
HETATM    7 CL   UNL     1       1.774   7.437  -0.825  1.00  0.00    -0.081 Cl
ENDROOT
BRANCH   1   8
HETATM    8  N   UNL     1       1.207   2.368   0.149  1.00  0.00    -0.336 N 
HETATM    9  H   UNL     1       2.179   2.356  -0.176  1.00  0.00     0.168 HD
BRANCH   8  10
HETATM   10  C   UNL     1       0.681   1.073  -0.095  1.00  0.00     0.149 A 
HETATM   11  N   UNL     1      -0.554   0.947  -0.624  1.00  0.00    -0.241 NA
HETATM   12  C   UNL     1      -1.111  -0.290  -0.670  1.00  0.00     0.135 A 
HETATM   13  C   UNL     1      -0.477  -1.443  -0.237  1.00  0.00     0.067 A 
HETATM   14  C   UNL     1       0.840  -1.319   0.212  1.00  0.00     0.045 A 
HETATM   15  C   UNL     1       1.423  -0.056   0.288  1.00  0.00     0.080 A 
HETATM   16 CL   UNL     1       3.040   0.080   0.878  1.00  0.00    -0.080 Cl
BRANCH  13  17
HETATM   17  C   UNL     1      -1.186  -2.761  -0.259  1.00  0.00     0.418 C 
HETATM   18  F   UNL     1      -0.890  -3.490  -1.369  1.00  0.00    -0.166 F 
HETATM   19  F   UNL     1      -0.862  -3.548   0.804  1.00  0.00    -0.166 F 
HETATM   20  F   UNL     1      -2.541  -2.644  -0.235  1.00  0.00    -0.166 F 
ENDBRANCH  13  17
ENDBRANCH   8  10
ENDBRANCH   1   8
BRANCH   2  21
HETATM   21  N   UNL     1       2.788   4.675  -0.234  1.00  0.00    -0.111 N 
HETATM   22  O   UNL     1       3.457   5.282   0.610  1.00  0.00    -0.532 OA
HETATM   23  O   UNL     1       3.234   3.880  -1.074  1.00  0.00    -0.532 OA
ENDBRANCH   2  21
BRANCH   3  24
HETATM   24  N   UNL     1      -1.674   2.876   0.943  1.00  0.00    -0.113 N 
HETATM   25  O   UNL     1      -2.775   2.736   0.388  1.00  0.00    -0.532 OA
HETATM   26  O   UNL     1      -1.327   2.337   2.003  1.00  0.00    -0.532 OA
ENDBRANCH   3  24
BRANCH   6  27
HETATM   27  C   UNL     1      -1.279   7.639  -0.110  1.00  0.00     0.419 C 
HETATM   28  F   UNL     1      -1.919   7.805  -1.299  1.00  0.00    -0.166 F 
HETATM   29  F   UNL     1      -2.247   7.743   0.846  1.00  0.00    -0.166 F 
HETATM   30  F   UNL     1      -0.496   8.732   0.064  1.00  0.00    -0.166 F 
ENDBRANCH   6  27
TORSDOF 6
