REMARK  5 active torsions:
REMARK  status: ('A' for Active; 'I' for Inactive)
REMARK    1  A    between atoms: C_1  and  O_3 
REMARK    2  A    between atoms: C_1  and  C_4 
REMARK    3  A    between atoms: C_4  and  S_5 
REMARK    4  A    between atoms: S_5  and  C_6 
REMARK    5  A    between atoms: C_10  and  N_14 
ROOT
HETATM    1  C   UNL     1       4.865  -1.421  -1.073  1.00  0.00     0.025 A 
HETATM    2  C   UNL     1       5.689  -2.332  -1.767  1.00  0.00     0.053 A 
HETATM    3  C   UNL     1       5.436  -0.203  -0.652  1.00  0.00     0.055 A 
HETATM    4  C   UNL     1       7.017  -2.016  -2.052  1.00  0.00     0.070 A 
HETATM    5  C   UNL     1       6.739   0.173  -1.010  1.00  0.00     0.099 A 
HETATM    6  C   UNL     1       7.519  -0.773  -1.688  1.00  0.00     0.146 A 
HETATM    7 CL   UNL     1       5.139  -3.889  -2.295  1.00  0.00    -0.083 Cl
HETATM    8  F   UNL     1       8.798  -0.495  -1.989  1.00  0.00    -0.204 F 
ENDROOT
BRANCH   5   9
HETATM    9  N   UNL     1       7.350   1.392  -0.665  1.00  0.00    -0.220 NA
HETATM   10  C   UNL     1       6.826   2.580  -0.715  1.00  0.00     0.193 C 
HETATM   11  N   UNL     1       7.558   3.729  -0.451  1.00  0.00    -0.264 N 
HETATM   12  S   UNL     1       5.165   2.968  -1.137  1.00  0.00     0.012 SA
HETATM   13  N   UNL     1       6.790   4.892  -0.698  1.00  0.00    -0.247 N 
HETATM   14  C   UNL     1       8.953   3.810  -0.894  1.00  0.00     0.152 C 
HETATM   15  C   UNL     1       7.337   6.148  -0.224  1.00  0.00     0.153 C 
HETATM   16  C   UNL     1       5.442   4.662  -0.833  1.00  0.00     0.308 C 
HETATM   17  C   UNL     1       8.767   6.323  -0.721  1.00  0.00     0.024 C 
HETATM   18  C   UNL     1       9.605   5.093  -0.373  1.00  0.00     0.024 C 
HETATM   19  O   UNL     1       4.543   5.483  -0.761  1.00  0.00    -0.258 OA
ENDBRANCH   5   9
BRANCH   1  20
HETATM   20  S   UNL     1       3.134  -1.823  -0.752  1.00  0.00    -0.118 SA
BRANCH  20  21
HETATM   21  C   UNL     1       2.420  -0.267  -0.124  1.00  0.00     0.190 C 
BRANCH  21  22
HETATM   22  C   UNL     1       0.905  -0.308  -0.104  1.00  0.00     0.268 C 
HETATM   23  O   UNL     1       0.182  -0.922  -0.876  1.00  0.00    -0.264 OA
BRANCH  22  24
HETATM   24  O   UNL     1       0.452   0.535   0.874  1.00  0.00    -0.326 OA
HETATM   25  C   UNL     1      -0.971   0.645   0.939  1.00  0.00     0.213 C 
ENDBRANCH  22  24
ENDBRANCH  21  22
ENDBRANCH  20  21
ENDBRANCH   1  20
TORSDOF 5
