REMARK  2 active torsions:
REMARK  status: ('A' for Active; 'I' for Inactive)
REMARK    1  A    between atoms: C_3  and  N_16 
REMARK    2  A    between atoms: N_12  and  C_13 
ROOT
HETATM    1  C   UNL     1       7.375   1.310  -0.414  1.00  0.00     0.225 C 
HETATM    2  C   UNL     1       8.857   0.998  -0.296  1.00  0.00    -0.097 C 
HETATM    3  C   UNL     1      10.130   0.731  -0.194  1.00  0.00     0.014 C 
ENDROOT
BRANCH   1   4
HETATM    4  N   UNL     1       6.565   0.054  -0.284  1.00  0.00    -0.302 N 
HETATM    5  C   UNL     1       5.127   0.104  -0.287  1.00  0.00     0.074 A 
HETATM    6  C   UNL     1       4.412   1.310  -0.392  1.00  0.00     0.066 A 
HETATM    7  C   UNL     1       4.393  -1.074  -0.058  1.00  0.00     0.099 A 
HETATM    8  C   UNL     1       3.009   1.372  -0.210  1.00  0.00     0.086 A 
HETATM    9  C   UNL     1       2.339   0.166   0.052  1.00  0.00     0.146 A 
HETATM   10  F   UNL     1       1.044   0.134   0.385  1.00  0.00    -0.204 F 
HETATM   11  C   UNL     1       3.014  -1.043   0.103  1.00  0.00     0.083 A 
HETATM   12  O   UNL     1       4.934  -2.319   0.095  1.00  0.00    -0.340 OA
HETATM   13  C   UNL     1       6.294  -2.375  -0.259  1.00  0.00     0.279 C 
HETATM   14  C   UNL     1       7.134  -1.169   0.120  1.00  0.00     0.249 C 
HETATM   15  O   UNL     1       8.221  -1.343   0.664  1.00  0.00    -0.271 OA
BRANCH   8  16
HETATM   16  N   UNL     1       2.313   2.618  -0.221  1.00  0.00    -0.241 N 
HETATM   17  C   UNL     1       2.896   3.849  -0.044  1.00  0.00     0.262 A 
HETATM   18  O   UNL     1       4.058   4.160   0.133  1.00  0.00    -0.267 OA
HETATM   19  C   UNL     1       1.818   4.843  -0.067  1.00  0.00     0.022 A 
HETATM   20  C   UNL     1       0.672   4.206  -0.280  1.00  0.00     0.022 A 
HETATM   21  C   UNL     1       1.968   6.304   0.088  1.00  0.00     0.045 C 
HETATM   22  C   UNL     1       0.967   2.780  -0.446  1.00  0.00     0.262 A 
HETATM   23  C   UNL     1      -0.660   4.835  -0.389  1.00  0.00     0.045 C 
HETATM   24  O   UNL     1       0.113   2.000  -0.831  1.00  0.00    -0.267 OA
HETATM   25  C   UNL     1      -0.629   6.343  -0.083  1.00  0.00     0.005 C 
HETATM   26  C   UNL     1       0.705   7.057  -0.360  1.00  0.00     0.005 C 
ENDBRANCH   8  16
ENDBRANCH   1   4
TORSDOF 2
