REMARK  6 active torsions:
REMARK  status: ('A' for Active; 'I' for Inactive)
REMARK    1  A    between atoms: N_12  and  C_13 
REMARK    2  A    between atoms: C_13  and  C_14 
REMARK    3  A    between atoms: C_14  and  C_15 
REMARK    4  A    between atoms: C_14  and  C_19 
REMARK    5  A    between atoms: C_15  and  C_16 
REMARK    6  A    between atoms: C_16  and  C_17 
ROOT
HETATM    1  O   UNL     1       1.370  -0.335   1.096  1.00  0.00    -0.272 OA
HETATM    2  C   UNL     1       2.445  -0.133   0.552  1.00  0.00     0.232 C 
HETATM    3  C   UNL     1       3.237   1.138   0.679  1.00  0.00     0.100 C 
HETATM    4  C   UNL     1       4.387   0.965  -0.343  1.00  0.00     0.100 C 
HETATM    5  C   UNL     1       4.224   2.182  -1.265  1.00  0.00     0.022 C 
HETATM    6  C   UNL     1       2.699   2.330  -1.330  1.00  0.00     0.018 C 
HETATM    7  C   UNL     1       2.536   2.419   0.193  1.00  0.00     0.022 C 
HETATM    8  C   UNL     1       3.513   3.551   0.447  1.00  0.00    -0.025 C 
HETATM    9  C   UNL     1       4.527   3.405  -0.422  1.00  0.00    -0.025 C 
HETATM   10  C   UNL     1       4.095  -0.357  -0.994  1.00  0.00     0.232 C 
HETATM   11  O   UNL     1       4.647  -0.770  -2.003  1.00  0.00    -0.272 OA
HETATM   12  N   UNL     1       3.137  -0.997  -0.255  1.00  0.00    -0.287 N 
ENDROOT
BRANCH  12  13
HETATM   13  C   UNL     1       2.748  -2.382  -0.454  1.00  0.00     0.139 C 
BRANCH  13  14
HETATM   14  C   UNL     1       3.914  -3.406  -0.327  1.00  0.00     0.004 C 
BRANCH  14  15
HETATM   15  C   UNL     1       4.625  -3.419   1.058  1.00  0.00     0.006 C 
BRANCH  15  16
HETATM   16  C   UNL     1       5.332  -2.111   1.422  1.00  0.00     0.000 C 
BRANCH  16  17
HETATM   17  C   UNL     1       6.272  -2.218   2.619  1.00  0.00    -0.005 C 
HETATM   18  C   UNL     1       6.864  -0.849   2.937  1.00  0.00     0.005 C 
ENDBRANCH  16  17
ENDBRANCH  15  16
ENDBRANCH  14  15
BRANCH  14  19
HETATM   19  C   UNL     1       3.353  -4.810  -0.664  1.00  0.00     0.002 C 
HETATM   20  C   UNL     1       4.425  -5.866  -0.901  1.00  0.00     0.005 C 
ENDBRANCH  14  19
ENDBRANCH  13  14
ENDBRANCH  12  13
TORSDOF 6
