REMARK  3 active torsions:
REMARK  status: ('A' for Active; 'I' for Inactive)
REMARK    1  A    between atoms: C_2  and  O_4 
REMARK    2  A    between atoms: C_3  and  N_9 
REMARK    3  A    between atoms: O_4  and  C_5 
REMARK       I    between atoms: C_5  and  N_10 
ROOT
HETATM    1  N   UNL     1      -0.158   1.285   0.168  1.00  0.00    -0.037 NA
HETATM    2  C   UNL     1      -0.957   0.208   0.116  1.00  0.00     0.201 A 
HETATM    3  C   UNL     1       1.161   1.072   0.124  1.00  0.00     0.726 A 
HETATM    4  N   UNL     1       1.674  -0.167   0.075  1.00  0.00    -0.067 NA
HETATM    5  C   UNL     1      -0.530  -1.105   0.062  1.00  0.00     0.017 A 
HETATM    6  C   UNL     1       0.845  -1.234   0.051  1.00  0.00     0.060 A 
HETATM    7  C   UNL     1      -1.448  -2.283   0.022  1.00  0.00     0.055 C 
HETATM    8  C   UNL     1       1.518  -2.575  -0.002  1.00  0.00     0.072 C 
ENDROOT
BRANCH   2   9
HETATM    9  O   UNL     1      -2.407   0.414   0.125  1.00  0.00    -0.241 OA
BRANCH   9  10
HETATM   10  C   UNL     1      -3.556   1.254   0.081  1.00  0.00     0.368 C 
HETATM   11  N   UNL     1      -3.401   2.608  -0.177  1.00  0.00    -0.336 N 
HETATM   12  C   UNL     1      -4.532   3.497   0.011  1.00  0.00     0.154 C 
HETATM   13  C   UNL     1      -2.130   3.249  -0.390  1.00  0.00     0.154 C 
HETATM   14  O   UNL     1      -4.658   0.737   0.276  1.00  0.00    -0.238 OA
ENDBRANCH   9  10
ENDBRANCH   2   9
BRANCH   3  15
HETATM   15  N   UNL     1       2.020   2.146   0.104  1.00  0.00    -0.223 N 
HETATM   16  C   UNL     1       3.453   1.946   0.039  1.00  0.00     0.168 C 
HETATM   17  C   UNL     1       1.541   3.509   0.109  1.00  0.00     0.168 C 
ENDBRANCH   3  15
TORSDOF 3
