REMARK  8 active torsions:
REMARK  status: ('A' for Active; 'I' for Inactive)
REMARK    1  A    between atoms: N_2  and  S_3 
REMARK       I    between atoms: N_2  and  C_14 
REMARK    2  A    between atoms: S_3  and  N_4 
REMARK       I    between atoms: N_4  and  C_5 
REMARK    3  A    between atoms: C_5  and  O_7 
REMARK    4  A    between atoms: O_7  and  N_8 
REMARK    5  A    between atoms: C_9  and  S_10 
REMARK    6  A    between atoms: C_14  and  O_16 
REMARK    7  A    between atoms: O_16  and  N_17 
REMARK    8  A    between atoms: C_18  and  S_19 
ROOT
HETATM    1  S   UNL     1       2.840  -1.298   0.463  1.00  0.00     0.053 SA
ENDROOT
BRANCH   1   2
HETATM    2  N   UNL     1       2.987   0.373  -0.000  1.00  0.00    -0.152 NA
HETATM    3  C   UNL     1       1.721   1.053  -0.145  1.00  0.00     0.138 C 
HETATM    4  C   UNL     1       3.844   0.670  -1.085  1.00  0.00     0.375 C 
HETATM    5  O   UNL     1       3.426   1.252  -2.092  1.00  0.00    -0.242 OA
BRANCH   4   6
HETATM    6  O   UNL     1       5.188   0.390  -0.874  1.00  0.00    -0.159 OA
BRANCH   6   7
HETATM    7  N   UNL     1       5.883   1.029  -1.929  1.00  0.00    -0.122 NA
HETATM    8  C   UNL     1       7.164   1.103  -1.816  1.00  0.00     0.094 C 
HETATM    9  C   UNL     1       8.024   0.526  -0.735  1.00  0.00     0.081 C 
BRANCH   8  10
HETATM   10  S   UNL     1       8.051   1.979  -3.071  1.00  0.00    -0.117 SA
HETATM   11  C   UNL     1       6.676   2.694  -4.016  1.00  0.00     0.097 C 
ENDBRANCH   8  10
ENDBRANCH   6   7
ENDBRANCH   4   6
ENDBRANCH   1   2
BRANCH   1  12
HETATM   12  N   UNL     1       1.876  -1.396   1.888  1.00  0.00    -0.256 N 
HETATM   13  C   UNL     1       0.463  -1.440   1.904  1.00  0.00     0.397 C 
HETATM   14  O   UNL     1      -0.153  -1.793   2.916  1.00  0.00    -0.235 OA
HETATM   15  C   UNL     1       2.532  -1.951   3.066  1.00  0.00     0.171 C 
BRANCH  13  16
HETATM   16  O   UNL     1      -0.172  -1.011   0.741  1.00  0.00    -0.154 OA
BRANCH  16  17
HETATM   17  N   UNL     1      -1.579  -0.974   0.954  1.00  0.00    -0.121 NA
HETATM   18  C   UNL     1      -2.233  -0.278   0.078  1.00  0.00     0.094 C 
HETATM   19  C   UNL     1      -1.683   0.477  -1.096  1.00  0.00     0.081 C 
BRANCH  18  20
HETATM   20  S   UNL     1      -3.984  -0.089   0.205  1.00  0.00    -0.117 SA
HETATM   21  C   UNL     1      -4.364  -1.096   1.644  1.00  0.00     0.097 C 
ENDBRANCH  18  20
ENDBRANCH  16  17
ENDBRANCH  13  16
ENDBRANCH   1  12
TORSDOF 8
