REMARK  5 active torsions:
REMARK  status: ('A' for Active; 'I' for Inactive)
REMARK    1  A    between atoms: N_2  and  C_9 
REMARK    2  A    between atoms: C_6  and  S_13 
REMARK    3  A    between atoms: S_13  and  C_14 
REMARK    4  A    between atoms: C_14  and  C_15 
REMARK    5  A    between atoms: C_20  and  C_21 
ROOT
HETATM    1  N   UNL     1      -0.806   1.024  -0.008  1.00  0.00    -0.180 NA
HETATM    2  N   UNL     1      -1.538  -0.136   0.001  1.00  0.00    -0.225 N 
HETATM    3  C   UNL     1      -0.940  -1.397   0.014  1.00  0.00     0.287 A 
HETATM    4  C   UNL     1       0.479   0.928   0.011  1.00  0.00     0.159 A 
HETATM    5  C   UNL     1       0.561  -1.439   0.051  1.00  0.00     0.121 A 
HETATM    6  C   UNL     1       1.286  -0.313   0.049  1.00  0.00     0.047 A 
HETATM    7  O   UNL     1      -1.580  -2.450   0.003  1.00  0.00    -0.265 OA
HETATM    8 CL   UNL     1       1.196  -3.052   0.105  1.00  0.00    -0.077 Cl
ENDROOT
BRANCH   6   9
HETATM    9  S   UNL     1       2.985   0.014   0.088  1.00  0.00    -0.122 SA
BRANCH   9  10
HETATM   10  C   UNL     1       3.866  -1.551   0.104  1.00  0.00     0.118 C 
BRANCH  10  11
HETATM   11  C   UNL     1       5.376  -1.500   0.004  1.00  0.00    -0.049 A 
HETATM   12  C   UNL     1       6.139  -0.333  -0.049  1.00  0.00     0.008 A 
HETATM   13  C   UNL     1       7.526  -0.394  -0.231  1.00  0.00     0.008 A 
HETATM   14  C   UNL     1       8.203  -1.621  -0.360  1.00  0.00    -0.051 A 
HETATM   15  C   UNL     1       7.437  -2.788  -0.252  1.00  0.00     0.008 A 
HETATM   16  C   UNL     1       6.051  -2.728  -0.074  1.00  0.00     0.008 A 
BRANCH  14  17
HETATM   17  C   UNL     1       9.709  -1.642  -0.665  1.00  0.00    -0.024 C 
HETATM   18  C   UNL     1       9.939  -0.995  -2.049  1.00  0.00     0.019 C 
HETATM   19  C   UNL     1      10.486  -0.849   0.406  1.00  0.00     0.019 C 
HETATM   20  C   UNL     1      10.316  -3.062  -0.714  1.00  0.00     0.019 C 
ENDBRANCH  14  17
ENDBRANCH  10  11
ENDBRANCH   9  10
ENDBRANCH   6   9
BRANCH   2  21
HETATM   21  C   UNL     1      -3.028   0.018  -0.009  1.00  0.00     0.048 C 
HETATM   22  C   UNL     1      -3.626  -0.624  -1.276  1.00  0.00     0.040 C 
HETATM   23  C   UNL     1      -3.641  -0.623   1.252  1.00  0.00     0.040 C 
HETATM   24  C   UNL     1      -3.454   1.507  -0.012  1.00  0.00     0.040 C 
ENDBRANCH   2  21
TORSDOF 5
