REMARK  5 active torsions:
REMARK  status: ('A' for Active; 'I' for Inactive)
REMARK    1  A    between atoms: C_1  and  C_4 
REMARK    2  A    between atoms: C_3  and  C_9 
REMARK    3  A    between atoms: C_4  and  O_6 
REMARK    4  A    between atoms: O_6  and  C_13 
REMARK    5  A    between atoms: C_15  and  C_20 
ROOT
HETATM    1  C   UNL     1      -0.976   7.248  -1.839  1.00  0.00     0.135 C 
HETATM    2  C   UNL     1      -2.427   6.875  -2.095  1.00  0.00    -0.113 C 
HETATM    3  C   UNL     1      -3.672   6.554  -2.315  1.00  0.00     0.012 C 
ENDROOT
BRANCH   1   4
HETATM    4  C   UNL     1      -0.154   5.993  -2.021  1.00  0.00     0.003 C 
HETATM    5  C   UNL     1      -0.409   4.705  -2.340  1.00  0.00    -0.043 C 
HETATM    6  C   UNL     1       0.794   3.801  -2.331  1.00  0.00     0.168 C 
HETATM    7  C   UNL     1      -1.723   4.067  -2.679  1.00  0.00     0.047 C 
HETATM    8  C   UNL     1       1.976   4.742  -2.164  1.00  0.00     0.120 C 
HETATM    9  C   UNL     1       1.310   6.045  -1.838  1.00  0.00     0.159 C 
HETATM   10  O   UNL     1       1.904   7.064  -1.512  1.00  0.00    -0.293 OA
BRANCH   6  11
HETATM   11  O   UNL     1       0.698   2.934  -1.187  1.00  0.00    -0.311 OA
BRANCH  11  12
HETATM   12  C   UNL     1       0.283   1.659  -1.434  1.00  0.00     0.265 C 
HETATM   13  O   UNL     1       0.055   1.199  -2.544  1.00  0.00    -0.265 OA
BRANCH  12  14
HETATM   14  C   UNL     1       0.169   0.882  -0.169  1.00  0.00     0.102 A 
HETATM   15  C   UNL     1       0.901  -0.445   0.011  1.00  0.00    -0.027 A 
HETATM   16  C   UNL     1      -0.619  -0.405  -0.008  1.00  0.00     0.031 A 
HETATM   17  C   UNL     1       1.702  -1.027  -1.129  1.00  0.00     0.016 C 
HETATM   18  C   UNL     1       1.556  -0.685   1.354  1.00  0.00     0.016 C 
BRANCH  16  19
HETATM   19  C   UNL     1      -1.440  -0.920  -1.113  1.00  0.00    -0.018 C 
HETATM   20  C   UNL     1      -2.787  -0.960  -1.186  1.00  0.00    -0.091 C 
HETATM   21  C   UNL     1      -3.718  -0.495  -0.101  1.00  0.00     0.042 C 
HETATM   22  C   UNL     1      -3.482  -1.486  -2.415  1.00  0.00     0.042 C 
ENDBRANCH  16  19
ENDBRANCH  12  14
ENDBRANCH  11  12
ENDBRANCH   6  11
ENDBRANCH   1   4
TORSDOF 5
