REMARK  6 active torsions:
REMARK  status: ('A' for Active; 'I' for Inactive)
REMARK    1  A    between atoms: C_1  and  C_4 
REMARK    2  A    between atoms: C_3  and  C_7 
REMARK    3  A    between atoms: C_4  and  O_6 
REMARK    4  A    between atoms: O_6  and  C_16 
REMARK    5  A    between atoms: C_8  and  C_9 
REMARK    6  A    between atoms: C_16  and  C_17 
ROOT
HETATM    1  C   UNL     1       0.029   1.706  -1.357  1.00  0.00     0.264 C 
HETATM    2  O   UNL     1      -0.394   1.305  -2.433  1.00  0.00    -0.265 OA
ENDROOT
BRANCH   1   3
HETATM    3  C   UNL     1       0.022   0.892  -0.110  1.00  0.00     0.102 A 
HETATM    4  C   UNL     1       0.834  -0.395   0.018  1.00  0.00    -0.027 A 
HETATM    5  C   UNL     1      -0.684  -0.448   0.013  1.00  0.00     0.033 A 
HETATM    6  C   UNL     1       1.655  -0.886  -1.151  1.00  0.00     0.016 C 
HETATM    7  C   UNL     1       1.504  -0.668   1.348  1.00  0.00     0.016 C 
BRANCH   5   8
HETATM    8  C   UNL     1      -1.466  -0.984  -1.113  1.00  0.00     0.008 C 
HETATM    9  C   UNL     1      -2.805  -0.964  -1.262  1.00  0.00     0.114 C 
HETATM   10 CL   UNL     1      -3.828  -0.307  -0.018  1.00  0.00    -0.080 Cl
BRANCH   9  11
HETATM   11  C   UNL     1      -3.537  -1.467  -2.472  1.00  0.00     0.427 C 
HETATM   12  F   UNL     1      -4.327  -2.534  -2.178  1.00  0.00    -0.165 F 
HETATM   13  F   UNL     1      -4.345  -0.521  -3.018  1.00  0.00    -0.165 F 
HETATM   14  F   UNL     1      -2.699  -1.877  -3.463  1.00  0.00    -0.165 F 
ENDBRANCH   9  11
ENDBRANCH   5   8
ENDBRANCH   1   3
BRANCH   1  15
HETATM   15  O   UNL     1       0.573   2.936  -1.146  1.00  0.00    -0.316 OA
BRANCH  15  16
HETATM   16  C   UNL     1       0.609   3.731  -2.336  1.00  0.00     0.224 C 
BRANCH  16  17
HETATM   17  C   UNL     1       1.322   5.021  -2.064  1.00  0.00     0.049 A 
HETATM   18  C   UNL     1       2.655   5.036  -1.648  1.00  0.00     0.167 A 
HETATM   19  C   UNL     1       3.332   6.239  -1.431  1.00  0.00     0.164 A 
HETATM   20  F   UNL     1       3.307   3.877  -1.471  1.00  0.00    -0.202 F 
HETATM   21  C   UNL     1       2.700   7.466  -1.630  1.00  0.00     0.021 A 
HETATM   22  F   UNL     1       4.613   6.205  -1.036  1.00  0.00    -0.202 F 
HETATM   23  C   UNL     1       1.370   7.452  -2.054  1.00  0.00     0.164 A 
HETATM   24  C   UNL     1       3.410   8.765  -1.414  1.00  0.00     0.055 C 
HETATM   25  C   UNL     1       0.693   6.250  -2.268  1.00  0.00     0.167 A 
HETATM   26  F   UNL     1       0.733   8.613  -2.269  1.00  0.00    -0.202 F 
HETATM   27  F   UNL     1      -0.579   6.285  -2.690  1.00  0.00    -0.202 F 
ENDBRANCH  16  17
ENDBRANCH  15  16
ENDBRANCH   1  15
TORSDOF 6
