REMARK  5 active torsions:
REMARK  status: ('A' for Active; 'I' for Inactive)
REMARK    1  A    between atoms: C_1  and  C_3 
REMARK       I    between atoms: C_1  and  N_9 
REMARK    2  A    between atoms: N_9  and  C_12 
REMARK    3  A    between atoms: C_12  and  C_13 
REMARK    4  A    between atoms: C_12  and  C_16 
REMARK    5  A    between atoms: C_13  and  C_14 
ROOT
HETATM    1  C   UNL     1       0.941   0.192  -0.175  1.00  0.00     0.252 C 
HETATM    2  O   UNL     1       0.271   1.084   0.331  1.00  0.00    -0.268 OA
HETATM    3  N   UNL     1       2.268  -0.030   0.120  1.00  0.00    -0.341 N 
HETATM    4  H   UNL     1       2.793  -0.692  -0.437  1.00  0.00     0.164 HD
ENDROOT
BRANCH   1   5
HETATM    5  C   UNL     1       0.338  -0.716  -1.177  1.00  0.00     0.035 A 
HETATM    6  C   UNL     1      -0.593  -0.203  -2.081  1.00  0.00     0.041 A 
HETATM    7  C   UNL     1      -1.199  -1.049  -3.016  1.00  0.00     0.042 A 
HETATM    8  C   UNL     1      -0.895  -2.422  -3.059  1.00  0.00    -0.018 A 
HETATM    9 CL   UNL     1      -2.335  -0.320  -4.098  1.00  0.00    -0.084 Cl
HETATM   10  C   UNL     1       0.028  -2.918  -2.117  1.00  0.00     0.042 A 
HETATM   11  C   UNL     1      -1.545  -3.364  -4.039  1.00  0.00     0.052 C 
HETATM   12  C   UNL     1       0.642  -2.076  -1.186  1.00  0.00     0.041 A 
HETATM   13 CL   UNL     1       0.440  -4.598  -2.045  1.00  0.00    -0.084 Cl
ENDBRANCH   1   5
BRANCH   3  14
HETATM   14  C   UNL     1       2.982   0.693   1.190  1.00  0.00     0.091 C 
HETATM   15  C   UNL     1       4.498   0.423   0.984  1.00  0.00     0.047 C 
BRANCH  14  16
HETATM   16  C   UNL     1       2.836   2.225   0.924  1.00  0.00     0.168 C 
HETATM   17  O   UNL     1       3.206   2.708  -0.158  1.00  0.00    -0.294 OA
BRANCH  16  18
HETATM   18  C   UNL     1       2.226   3.128   1.963  1.00  0.00     0.195 C 
HETATM   19 CL   UNL     1       3.415   3.481   3.226  1.00  0.00    -0.122 Cl
ENDBRANCH  16  18
ENDBRANCH  14  16
BRANCH  14  20
HETATM   20  C   UNL     1       2.645   0.123   2.594  1.00  0.00     0.034 C 
HETATM   21  C   UNL     1       1.185  -0.068   2.985  1.00  0.00     0.008 C 
ENDBRANCH  14  20
ENDBRANCH   3  14
TORSDOF 5
