REMARK  9 active torsions:
REMARK  status: ('A' for Active; 'I' for Inactive)
REMARK    1  A    between atoms: C_1  and  C_7 
REMARK    2  A    between atoms: C_3  and  C_22 
REMARK    3  A    between atoms: C_7  and  O_8 
REMARK    4  A    between atoms: O_8  and  N_9 
REMARK    5  A    between atoms: C_10  and  C_12 
REMARK    6  A    between atoms: C_16  and  C_18 
REMARK    7  A    between atoms: C_22  and  C_23 
REMARK    8  A    between atoms: C_23  and  O_26 
REMARK    9  A    between atoms: N_24  and  O_28 
ROOT
HETATM    1  C   UNL     1      -2.904   0.242  -0.056  1.00  0.00     0.243 C 
ENDROOT
BRANCH   1   2
HETATM    2  C   UNL     1      -1.397   0.070  -0.045  1.00  0.00    -0.019 A 
HETATM    3  C   UNL     1      -0.653   1.282   0.051  1.00  0.00     0.010 A 
HETATM    4  C   UNL     1       0.733   1.309   0.052  1.00  0.00     0.001 A 
HETATM    5  C   UNL     1       1.412   0.122  -0.084  1.00  0.00     0.001 A 
HETATM    6  C   UNL     1       0.702  -1.079  -0.227  1.00  0.00     0.014 A 
HETATM    7  C   UNL     1      -0.711  -1.182  -0.183  1.00  0.00     0.009 A 
BRANCH   7   8
HETATM    8  C   UNL     1      -1.337  -2.607  -0.270  1.00  0.00     0.169 C 
HETATM    9  N   UNL     1      -2.552  -2.985  -0.569  1.00  0.00    -0.127 NA
BRANCH   8  10
HETATM   10  C   UNL     1      -0.515  -3.937   0.024  1.00  0.00     0.314 C 
HETATM   11  O   UNL     1      -1.081  -5.016   0.103  1.00  0.00    -0.257 OA
BRANCH  10  12
HETATM   12  O   UNL     1       0.818  -3.811   0.084  1.00  0.00    -0.321 OA
HETATM   13  C   UNL     1       1.541  -5.046   0.059  1.00  0.00     0.213 C 
ENDBRANCH  10  12
ENDBRANCH   8  10
BRANCH   9  14
HETATM   14  O   UNL     1      -3.463  -2.051  -0.992  1.00  0.00    -0.261 OA
HETATM   15  C   UNL     1      -4.777  -2.554  -0.749  1.00  0.00     0.240 C 
ENDBRANCH   9  14
ENDBRANCH   7   8
ENDBRANCH   1   2
BRANCH   1  16
HETATM   16  O   UNL     1      -3.389   1.565   0.259  1.00  0.00    -0.252 OA
BRANCH  16  17
HETATM   17  N   UNL     1      -4.772   1.582   0.001  1.00  0.00    -0.138 NA
HETATM   18  C   UNL     1      -5.258   2.781  -0.142  1.00  0.00     0.068 C 
HETATM   19  C   UNL     1      -4.430   4.047  -0.045  1.00  0.00     0.074 C 
BRANCH  18  20
HETATM   20  C   UNL     1      -6.731   2.921  -0.427  1.00  0.00    -0.009 A 
HETATM   21  C   UNL     1      -7.357   4.172  -0.482  1.00  0.00     0.013 A 
HETATM   22  C   UNL     1      -8.726   4.269  -0.747  1.00  0.00     0.002 A 
HETATM   23  C   UNL     1      -9.483   3.117  -0.959  1.00  0.00     0.016 A 
HETATM   24  C   UNL     1      -8.881   1.852  -0.906  1.00  0.00     0.048 A 
HETATM   25  C   UNL     1      -7.503   1.766  -0.642  1.00  0.00     0.029 A 
BRANCH  24  26
HETATM   26  C   UNL     1      -9.713   0.615  -1.147  1.00  0.00     0.417 C 
HETATM   27  F   UNL     1     -10.809   0.561  -0.340  1.00  0.00    -0.166 F 
HETATM   28  F   UNL     1     -10.187   0.552  -2.422  1.00  0.00    -0.166 F 
HETATM   29  F   UNL     1      -9.039  -0.549  -0.940  1.00  0.00    -0.166 F 
ENDBRANCH  24  26
ENDBRANCH  18  20
ENDBRANCH  16  17
ENDBRANCH   1  16
TORSDOF 9
