REMARK  6 active torsions:
REMARK  status: ('A' for Active; 'I' for Inactive)
REMARK    1  A    between atoms: C_5  and  C_8 
REMARK    2  A    between atoms: C_8  and  O_9 
REMARK    3  A    between atoms: C_8  and  C_10 
REMARK    4  A    between atoms: C_8  and  C_16 
REMARK    5  A    between atoms: C_10  and  N_11 
REMARK    6  A    between atoms: C_16  and  C_17 
ROOT
HETATM    1  C   UNL     1       6.923   0.091  -0.584  1.00  0.00     0.106 C 
ENDROOT
BRANCH   1   2
HETATM    2  C   UNL     1       5.394   0.023  -0.365  1.00  0.00    -0.022 A 
HETATM    3  C   UNL     1       4.573   1.103  -0.749  1.00  0.00     0.012 A 
HETATM    4  C   UNL     1       3.194   1.090  -0.515  1.00  0.00     0.024 A 
HETATM    5  C   UNL     1       2.604  -0.018   0.083  1.00  0.00     0.034 A 
HETATM    6 CL   UNL     1       0.907  -0.047   0.356  1.00  0.00    -0.084 Cl
HETATM    7  C   UNL     1       3.385  -1.103   0.464  1.00  0.00     0.024 A 
HETATM    8  C   UNL     1       4.770  -1.076   0.257  1.00  0.00     0.012 A 
ENDBRANCH   1   2
BRANCH   1   9
HETATM    9  O   UNL     1       7.177   0.809  -1.808  1.00  0.00    -0.383 OA
HETATM   10  H   UNL     1       7.559   1.685  -1.593  1.00  0.00     0.211 HD
ENDBRANCH   1   9
BRANCH   1  11
HETATM   11  C   UNL     1       7.559   0.819   0.640  1.00  0.00     0.195 C 
BRANCH  11  12
HETATM   12  N   UNL     1       7.197   2.217   0.760  1.00  0.00    -0.259 N 
HETATM   13  C   UNL     1       6.343   2.805   1.636  1.00  0.00     0.230 A 
HETATM   14  N   UNL     1       6.364   4.107   1.456  1.00  0.00    -0.234 NA
HETATM   15  C   UNL     1       7.258   4.265   0.436  1.00  0.00     0.256 A 
HETATM   16  N   UNL     1       7.779   3.131  -0.044  1.00  0.00    -0.165 NA
ENDBRANCH  11  12
ENDBRANCH   1  11
BRANCH   1  17
HETATM   17  C   UNL     1       7.603  -1.336  -0.779  1.00  0.00     0.026 C 
HETATM   18  C   UNL     1       9.129  -1.253  -0.970  1.00  0.00     0.014 C 
BRANCH  17  19
HETATM   19  C   UNL     1       6.949  -2.132  -1.919  1.00  0.00    -0.007 A 
HETATM   20  C   UNL     1       6.980  -3.643  -1.849  1.00  0.00     0.005 A 
HETATM   21  C   UNL     1       7.694  -2.939  -2.963  1.00  0.00     0.005 A 
ENDBRANCH  17  19
ENDBRANCH   1  17
TORSDOF 6
