REMARK  4 active torsions:
REMARK  status: ('A' for Active; 'I' for Inactive)
REMARK    1  A    between atoms: C_2  and  C_3 
REMARK       I    between atoms: C_2  and  N_9 
REMARK    2  A    between atoms: C_3  and  C_6 
REMARK    3  A    between atoms: C_6  and  O_8 
REMARK    4  A    between atoms: N_9  and  C_10 
ROOT
HETATM    1  O   UNL     1       1.238   0.242  -0.060  1.00  0.00    -0.272 OA
HETATM    2  C   UNL     1       2.463   0.123  -0.066  1.00  0.00     0.241 C 
HETATM    3  N   UNL     1       3.185   0.752   0.930  1.00  0.00    -0.325 N 
HETATM    4  H   UNL     1       2.658   1.547   1.276  1.00  0.00     0.169 HD
ENDROOT
BRANCH   3   5
HETATM    5  C   UNL     1       4.580   0.780   1.098  1.00  0.00     0.056 A 
HETATM    6  C   UNL     1       5.356  -0.358   1.375  1.00  0.00     0.062 A 
HETATM    7  C   UNL     1       6.742  -0.250   1.520  1.00  0.00     0.050 A 
HETATM    8 CL   UNL     1       4.654  -1.909   1.658  1.00  0.00    -0.082 Cl
HETATM    9  C   UNL     1       7.352   0.995   1.400  1.00  0.00     0.035 A 
HETATM   10  C   UNL     1       6.589   2.137   1.169  1.00  0.00     0.026 A 
HETATM   11 CL   UNL     1       9.059   1.126   1.559  1.00  0.00    -0.084 Cl
HETATM   12  C   UNL     1       5.202   2.032   1.041  1.00  0.00     0.033 A 
ENDBRANCH   3   5
BRANCH   2  13
HETATM   13  C   UNL     1       3.146  -0.623  -1.190  1.00  0.00     0.126 A 
HETATM   14  C   UNL     1       2.210  -1.373  -2.166  1.00  0.00     0.032 A 
HETATM   15  C   UNL     1       3.042  -2.151  -1.207  1.00  0.00     0.032 A 
BRANCH  13  16
HETATM   16  C   UNL     1       4.260   0.095  -1.888  1.00  0.00     0.158 C 
HETATM   17  O   UNL     1       4.101   1.185  -2.413  1.00  0.00    -0.649 OA
BRANCH  16  18
HETATM   18  O   UNL     1       5.454  -0.547  -1.873  1.00  0.00    -0.775 OA
HETATM   19  H   UNL     1       5.434  -1.394  -1.392  1.00  0.00     0.167 HD
ENDBRANCH  16  18
ENDBRANCH  13  16
ENDBRANCH   2  13
TORSDOF 4
