REMARK  6 active torsions:
REMARK  status: ('A' for Active; 'I' for Inactive)
REMARK    1  A    between atoms: C_3  and  O_9 
REMARK    2  A    between atoms: O_9  and  C_10 
REMARK    3  A    between atoms: C_13  and  O_16 
REMARK    4  A    between atoms: O_16  and  C_17 
REMARK    5  A    between atoms: C_17  and  C_18 
REMARK    6  A    between atoms: C_18  and  O_20 
ROOT
HETATM    1  C   UNL     1       3.719   3.401  -0.004  1.00  0.00     0.076 C 
HETATM    2  C   UNL     1       3.022   4.608   0.127  1.00  0.00     0.040 C 
HETATM    3  C   UNL     1       3.626   5.829  -0.225  1.00  0.00     0.039 C 
HETATM    4  C   UNL     1       4.953   5.865  -0.655  1.00  0.00     0.070 C 
HETATM    5  C   UNL     1       5.660   4.674  -0.690  1.00  0.00     0.039 C 
HETATM    6  C   UNL     1       5.019   3.454  -0.489  1.00  0.00     0.040 C 
ENDROOT
BRANCH   1   7
HETATM    7  O   UNL     1       3.034   2.264   0.371  1.00  0.00    -0.309 OA
BRANCH   7   8
HETATM    8  C   UNL     1       3.595   1.005   0.294  1.00  0.00     0.098 C 
HETATM    9  C   UNL     1       2.766  -0.058  -0.097  1.00  0.00     0.069 C 
HETATM   10 CL   UNL     1       1.077   0.175  -0.378  1.00  0.00    -0.081 Cl
HETATM   11  C   UNL     1       3.284  -1.349  -0.251  1.00  0.00     0.050 C 
HETATM   12  C   UNL     1       4.638  -1.579  -0.027  1.00  0.00     0.035 C 
HETATM   13  C   UNL     1       5.456  -0.554   0.434  1.00  0.00     0.026 C 
HETATM   14 CL   UNL     1       5.303  -3.142  -0.295  1.00  0.00    -0.084 Cl
HETATM   15  C   UNL     1       4.916   0.715   0.656  1.00  0.00     0.041 C 
ENDBRANCH   7   8
ENDBRANCH   1   7
BRANCH   4  16
HETATM   16  O   UNL     1       5.445   7.079  -1.046  1.00  0.00    -0.336 OA
BRANCH  16  17
HETATM   17  C   UNL     1       6.722   7.130  -1.694  1.00  0.00     0.224 C 
HETATM   18  C   UNL     1       7.112   8.609  -1.764  1.00  0.00     0.051 C 
BRANCH  17  19
HETATM   19  C   UNL     1       6.810   6.535  -3.124  1.00  0.00     0.287 C 
HETATM   20  O   UNL     1       6.763   7.176  -4.170  1.00  0.00    -0.262 OA
BRANCH  19  21
HETATM   21  O   UNL     1       6.989   5.186  -3.068  1.00  0.00    -0.324 OA
HETATM   22  C   UNL     1       6.907   4.457  -4.293  1.00  0.00     0.213 C 
ENDBRANCH  19  21
ENDBRANCH  17  19
ENDBRANCH  16  17
ENDBRANCH   4  16
TORSDOF 6
