REMARK  8 active torsions:
REMARK  status: ('A' for Active; 'I' for Inactive)
REMARK    1  A    between atoms: P_1  and  S_3 
REMARK    2  A    between atoms: P_1  and  S_4 
REMARK    3  A    between atoms: P_1  and  O_5 
REMARK    4  A    between atoms: S_3  and  C_6 
REMARK    5  A    between atoms: S_4  and  C_7 
REMARK    6  A    between atoms: O_5  and  C_8 
REMARK    7  A    between atoms: C_6  and  C_9 
REMARK    8  A    between atoms: C_7  and  C_10 
ROOT
HETATM    1  P   UNL     1       1.060   0.062   0.051  1.00  0.00     0.313 P 
HETATM    2  O   UNL     1       1.019  -0.509  -1.371  1.00  0.00    -0.267 OA
ENDROOT
BRANCH   1   3
HETATM    3  S   UNL     1       1.078  -1.690   1.396  1.00  0.00    -0.063 SA
BRANCH   3   4
HETATM    4  C   UNL     1       2.685  -2.487   1.104  1.00  0.00     0.084 C 
BRANCH   4   5
HETATM    5  C   UNL     1       2.712  -3.905   1.663  1.00  0.00     0.006 C 
HETATM    6  C   UNL     1       4.125  -4.474   1.623  1.00  0.00     0.006 C 
ENDBRANCH   4   5
ENDBRANCH   3   4
ENDBRANCH   1   3
BRANCH   1   7
HETATM    7  S   UNL     1      -1.060   0.062   0.051  1.00  0.00    -0.063 SA
BRANCH   7   8
HETATM    8  C   UNL     1      -1.647  -1.355  -0.917  1.00  0.00     0.084 C 
BRANCH   8   9
HETATM    9  C   UNL     1      -3.173  -1.407  -0.875  1.00  0.00     0.006 C 
HETATM   10  C   UNL     1      -3.705  -2.605  -1.648  1.00  0.00     0.006 C 
ENDBRANCH   8   9
ENDBRANCH   7   8
ENDBRANCH   1   7
BRANCH   1  11
HETATM   11  O   UNL     1       2.790   0.062   0.051  1.00  0.00    -0.319 OA
BRANCH  11  12
HETATM   12  C   UNL     1       3.385   0.983  -0.853  1.00  0.00     0.173 C 
HETATM   13  C   UNL     1       4.890   0.907  -0.695  1.00  0.00     0.034 C 
ENDBRANCH  11  12
ENDBRANCH   1  11
TORSDOF 8
