REMARK  9 active torsions:
REMARK  status: ('A' for Active; 'I' for Inactive)
REMARK    1  A    between atoms: C_1  and  C_7 
REMARK    2  A    between atoms: C_5  and  O_22 
REMARK    3  A    between atoms: C_7  and  O_8 
REMARK    4  A    between atoms: O_8  and  C_9 
REMARK    5  A    between atoms: C_9  and  C_10 
REMARK    6  A    between atoms: C_10  and  C_12 
REMARK    7  A    between atoms: C_17  and  O_18 
REMARK    8  A    between atoms: O_18  and  C_19 
REMARK    9  A    between atoms: O_22  and  C_23 
ROOT
HETATM    1  C   UNL     1      -1.508  -2.582   0.453  1.00  0.00     0.206 C 
ENDROOT
BRANCH   1   2
HETATM    2  C   UNL     1      -0.738  -1.301   0.230  1.00  0.00    -0.032 A 
HETATM    3  C   UNL     1      -1.342  -0.135  -0.261  1.00  0.00     0.009 A 
HETATM    4  C   UNL     1      -0.578   1.002  -0.530  1.00  0.00     0.003 A 
HETATM    5  C   UNL     1       0.804   0.970  -0.352  1.00  0.00     0.037 A 
HETATM    6  C   UNL     1       1.424  -0.190   0.114  1.00  0.00     0.076 A 
HETATM    7  C   UNL     1       0.647  -1.294   0.468  1.00  0.00     0.046 A 
BRANCH   6   8
HETATM    8  O   UNL     1       2.785  -0.117   0.279  1.00  0.00    -0.311 OA
BRANCH   8   9
HETATM    9  C   UNL     1       3.624  -1.133  -0.120  1.00  0.00     0.076 A 
HETATM   10  C   UNL     1       4.968  -0.928   0.215  1.00  0.00     0.037 A 
HETATM   11  C   UNL     1       5.940  -1.877  -0.109  1.00  0.00     0.003 A 
HETATM   12  C   UNL     1       5.573  -3.050  -0.762  1.00  0.00     0.000 A 
HETATM   13  C   UNL     1       4.243  -3.253  -1.123  1.00  0.00     0.003 A 
HETATM   14  C   UNL     1       3.276  -2.285  -0.829  1.00  0.00     0.037 A 
ENDBRANCH   8   9
ENDBRANCH   6   8
ENDBRANCH   1   2
BRANCH   1  15
HETATM   15  O   UNL     1      -2.890  -2.431   0.136  1.00  0.00    -0.386 OA
BRANCH  15  16
HETATM   16  C   UNL     1      -3.497  -3.670  -0.242  1.00  0.00     0.181 C 
BRANCH  16  17
HETATM   17  C   UNL     1      -4.999  -3.471  -0.588  1.00  0.00     0.001 C 
HETATM   18  C   UNL     1      -5.728  -2.860   0.633  1.00  0.00     0.022 C 
HETATM   19  C   UNL     1      -5.630  -4.867  -0.813  1.00  0.00     0.022 C 
BRANCH  17  20
HETATM   20  C   UNL     1      -5.107  -2.592  -1.853  1.00  0.00    -0.048 A 
HETATM   21  C   UNL     1      -4.977  -3.140  -3.141  1.00  0.00     0.011 A 
HETATM   22  C   UNL     1      -5.008  -2.332  -4.284  1.00  0.00     0.037 A 
HETATM   23  C   UNL     1      -5.152  -0.951  -4.177  1.00  0.00     0.068 A 
HETATM   24  C   UNL     1      -5.295  -0.387  -2.914  1.00  0.00     0.037 A 
HETATM   25  C   UNL     1      -5.266  -1.197  -1.770  1.00  0.00     0.011 A 
BRANCH  23  26
HETATM   26  O   UNL     1      -5.131  -0.273  -5.364  1.00  0.00    -0.352 OA
BRANCH  26  27
HETATM   27  C   UNL     1      -5.015   1.147  -5.286  1.00  0.00     0.171 C 
HETATM   28  C   UNL     1      -4.767   1.675  -6.688  1.00  0.00     0.034 C 
ENDBRANCH  26  27
ENDBRANCH  23  26
ENDBRANCH  17  20
ENDBRANCH  16  17
ENDBRANCH  15  16
ENDBRANCH   1  15
TORSDOF 9
