REMARK  5 active torsions:
REMARK  status: ('A' for Active; 'I' for Inactive)
REMARK    1  A    between atoms: C_4  and  N_16 
REMARK    2  A    between atoms: C_7  and  O_8 
REMARK    3  A    between atoms: O_8  and  C_9 
REMARK    4  A    between atoms: C_9  and  C_12 
REMARK       I    between atoms: N_16  and  C_17 
REMARK       I    between atoms: C_17  and  N_19 
REMARK       I    between atoms: N_19  and  C_20 
REMARK    5  A    between atoms: C_20  and  C_22 
ROOT
HETATM    1  N   UNL     1       5.305  -2.737  -0.081  1.00  0.00    -0.309 N 
HETATM    2  C   UNL     1       4.755  -3.970   0.235  1.00  0.00     0.327 C 
HETATM    3  O   UNL     1       3.700  -4.120   0.845  1.00  0.00    -0.247 OA
HETATM    4  N   UNL     1       5.552  -5.022  -0.151  1.00  0.00    -0.275 N 
HETATM    5  C   UNL     1       4.999  -6.271  -0.372  1.00  0.00     0.265 C 
HETATM    6  O   UNL     1       3.884  -6.416  -0.865  1.00  0.00    -0.267 OA
HETATM    7  H   UNL     1       6.299  -2.700  -0.253  1.00  0.00     0.170 HD
HETATM    8  H   UNL     1       6.529  -4.951   0.090  1.00  0.00     0.173 HD
ENDROOT
BRANCH   1   9
HETATM    9  C   UNL     1       4.594  -1.513  -0.069  1.00  0.00     0.039 A 
HETATM   10  C   UNL     1       3.200  -1.455  -0.083  1.00  0.00     0.056 A 
HETATM   11  C   UNL     1       2.498  -0.234  -0.081  1.00  0.00     0.071 A 
HETATM   12 CL   UNL     1       0.781  -0.434  -0.096  1.00  0.00    -0.081 Cl
HETATM   13  C   UNL     1       3.194   0.982  -0.068  1.00  0.00     0.119 A 
HETATM   14  C   UNL     1       4.608   0.904  -0.075  1.00  0.00     0.071 A 
HETATM   15  C   UNL     1       5.301  -0.318  -0.090  1.00  0.00     0.056 A 
HETATM   16 CL   UNL     1       5.580   2.346  -0.057  1.00  0.00    -0.081 Cl
BRANCH  13  17
HETATM   17  O   UNL     1       2.724   2.266  -0.045  1.00  0.00    -0.276 OA
BRANCH  17  18
HETATM   18  C   UNL     1       1.343   2.607  -0.078  1.00  0.00     0.418 C 
HETATM   19  F   UNL     1       0.778   2.090  -1.194  1.00  0.00    -0.169 F 
HETATM   20  F   UNL     1       0.744   2.082   1.022  1.00  0.00    -0.169 F 
BRANCH  18  21
HETATM   21  C   UNL     1       1.161   4.126  -0.055  1.00  0.00     0.455 C 
HETATM   22  F   UNL     1       1.714   4.708  -1.153  1.00  0.00    -0.205 F 
HETATM   23  F   UNL     1      -0.158   4.463  -0.069  1.00  0.00    -0.205 F 
ENDBRANCH  18  21
ENDBRANCH  17  18
ENDBRANCH  13  17
ENDBRANCH   1   9
BRANCH   5  24
HETATM   24  C   UNL     1       5.854  -7.466  -0.140  1.00  0.00     0.109 A 
HETATM   25  C   UNL     1       7.180  -7.369   0.290  1.00  0.00     0.135 A 
HETATM   26  C   UNL     1       7.966  -8.506   0.494  1.00  0.00     0.043 A 
HETATM   27  F   UNL     1       7.744  -6.170   0.512  1.00  0.00    -0.205 F 
HETATM   28  C   UNL     1       7.431  -9.772   0.271  1.00  0.00     0.006 A 
HETATM   29  C   UNL     1       6.110  -9.891  -0.152  1.00  0.00     0.043 A 
HETATM   30  C   UNL     1       5.333  -8.748  -0.351  1.00  0.00     0.135 A 
HETATM   31  F   UNL     1       4.069  -8.937  -0.752  1.00  0.00    -0.205 F 
ENDBRANCH   5  24
TORSDOF 5
