REMARK  7 active torsions:
REMARK  status: ('A' for Active; 'I' for Inactive)
REMARK    1  A    between atoms: O_2  and  N_3 
REMARK    2  A    between atoms: N_3  and  C_4 
REMARK       I    between atoms: N_3  and  C_24 
REMARK    3  A    between atoms: C_9  and  C_10 
REMARK    4  A    between atoms: C_10  and  O_11 
REMARK    5  A    between atoms: O_11  and  C_12 
REMARK    6  A    between atoms: N_14  and  C_17 
REMARK    7  A    between atoms: C_24  and  O_26 
ROOT
HETATM    1  C   UNL     1       0.537  -0.482  -2.213  1.00  0.00     0.218 C 
ENDROOT
BRANCH   1   2
HETATM    2  C   UNL     1       0.813  -1.899  -1.718  1.00  0.00    -0.005 A 
HETATM    3  C   UNL     1       1.879  -2.291  -0.878  1.00  0.00     0.077 A 
HETATM    4  C   UNL     1       2.034  -3.656  -0.553  1.00  0.00     0.033 A 
HETATM    5  C   UNL     1       1.141  -4.622  -1.006  1.00  0.00     0.002 A 
HETATM    6  C   UNL     1       0.067  -4.239  -1.794  1.00  0.00     0.001 A 
HETATM    7  C   UNL     1      -0.093  -2.897  -2.146  1.00  0.00     0.012 A 
BRANCH   3   8
HETATM    8  N   UNL     1       2.765  -1.387  -0.242  1.00  0.00    -0.164 N 
HETATM    9  C   UNL     1       4.154  -1.479  -0.196  1.00  0.00     0.391 C 
HETATM   10  O   UNL     1       4.892  -0.661   0.354  1.00  0.00    -0.236 OA
BRANCH   8  11
HETATM   11  O   UNL     1       2.239  -0.158   0.234  1.00  0.00    -0.273 OA
HETATM   12  C   UNL     1       1.277  -0.367   1.261  1.00  0.00     0.238 C 
ENDBRANCH   8  11
BRANCH   9  13
HETATM   13  O   UNL     1       4.639  -2.567  -0.871  1.00  0.00    -0.307 OA
HETATM   14  C   UNL     1       6.061  -2.687  -0.917  1.00  0.00     0.215 C 
ENDBRANCH   9  13
ENDBRANCH   3   8
ENDBRANCH   1   2
BRANCH   1  15
HETATM   15  O   UNL     1       1.706   0.330  -2.300  1.00  0.00    -0.329 OA
BRANCH  15  16
HETATM   16  C   UNL     1       1.414   1.639  -2.158  1.00  0.00     0.185 C 
HETATM   17  N   UNL     1       0.702   2.248  -3.101  1.00  0.00    -0.142 NA
HETATM   18  N   UNL     1       0.774   3.564  -2.754  1.00  0.00    -0.243 N 
HETATM   19  C   UNL     1       1.352   3.727  -1.512  1.00  0.00     0.123 C 
HETATM   20  C   UNL     1       1.859   2.502  -1.151  1.00  0.00     0.079 C 
BRANCH  18  21
HETATM   21  C   UNL     1       0.384   4.584  -3.667  1.00  0.00     0.058 A 
HETATM   22  C   UNL     1      -0.034   4.224  -4.957  1.00  0.00     0.033 A 
HETATM   23  C   UNL     1      -0.282   5.208  -5.916  1.00  0.00     0.026 A 
HETATM   24  C   UNL     1      -0.130   6.552  -5.584  1.00  0.00     0.034 A 
HETATM   25  C   UNL     1       0.246   6.923  -4.295  1.00  0.00     0.026 A 
HETATM   26 CL   UNL     1      -0.385   7.762  -6.780  1.00  0.00    -0.084 Cl
HETATM   27  C   UNL     1       0.501   5.942  -3.331  1.00  0.00     0.033 A 
ENDBRANCH  18  21
ENDBRANCH  15  16
ENDBRANCH   1  15
TORSDOF 7
