REMARK  2 active torsions:
REMARK  status: ('A' for Active; 'I' for Inactive)
REMARK    1  A    between atoms: N_8  and  N_9 
REMARK    2  A    between atoms: C_10  and  C_11 
ROOT
HETATM    1  O   UNL     1       0.958  -0.502   0.124  1.00  0.00    -0.243 OA
HETATM    2  C   UNL     1       2.164  -0.259   0.095  1.00  0.00     0.359 A 
HETATM    3  N   UNL     1       3.026  -1.334   0.067  1.00  0.00    -0.227 N 
HETATM    4  N   UNL     1       4.381  -1.328   0.039  1.00  0.00    -0.178 NA
HETATM    5  C   UNL     1       4.954  -0.167   0.057  1.00  0.00     0.048 A 
HETATM    6  C   UNL     1       6.458  -0.104   0.039  1.00  0.00     0.069 C 
HETATM    7  C   UNL     1       4.203   1.137   0.108  1.00  0.00     0.212 A 
HETATM    8  N   UNL     1       2.759   1.004   0.081  1.00  0.00    -0.213 N 
HETATM    9  H   UNL     1       2.582  -2.247   0.062  1.00  0.00     0.194 HD
ENDROOT
BRANCH   8  10
HETATM   10  N   UNL     1       2.094   2.228   0.096  1.00  0.00    -0.180 NA
HETATM   11  C   UNL     1       0.806   2.296   0.018  1.00  0.00     0.151 C 
BRANCH  11  12
HETATM   12  C   UNL     1       0.102   3.592   0.010  1.00  0.00     0.001 A 
HETATM   13  C   UNL     1      -1.276   3.606  -0.163  1.00  0.00     0.129 A 
HETATM   14  N   UNL     1      -2.017   4.739  -0.213  1.00  0.00    -0.272 NA
HETATM   15  C   UNL     1      -1.347   5.905  -0.083  1.00  0.00     0.116 A 
HETATM   16  C   UNL     1       0.025   5.991   0.101  1.00  0.00     0.020 A 
HETATM   17  C   UNL     1       0.764   4.810   0.148  1.00  0.00     0.016 A 
ENDBRANCH  11  12
ENDBRANCH   8  10
TORSDOF 2
