REMARK  10 active torsions:
REMARK  status: ('A' for Active; 'I' for Inactive)
REMARK    1  A    between atoms: C_1  and  C_2 
REMARK    2  A    between atoms: C_1  and  S_9 
REMARK    3  A    between atoms: C_2  and  C_3 
REMARK    4  A    between atoms: C_3  and  C_4 
REMARK    5  A    between atoms: C_4  and  C_5 
REMARK    6  A    between atoms: C_5  and  C_6 
REMARK    7  A    between atoms: C_6  and  C_7 
REMARK    8  A    between atoms: C_7  and  C_8 
REMARK    9  A    between atoms: S_9  and  N_12 
REMARK   10  A    between atoms: N_12  and  C_13 
ROOT
HETATM    1  C   UNL     1       1.077  -1.427   1.964  1.00  0.00     0.385 C 
HETATM    2  F   UNL     1       0.630  -2.709   2.155  1.00  0.00    -0.192 F 
HETATM    3  F   UNL     1       2.445  -1.539   2.013  1.00  0.00    -0.192 F 
ENDROOT
BRANCH   1   4
HETATM    4  C   UNL     1       0.700  -1.001   0.540  1.00  0.00     0.394 C 
HETATM    5  F   UNL     1      -0.639  -1.071   0.337  1.00  0.00    -0.191 F 
HETATM    6  F   UNL     1       1.179  -2.052  -0.246  1.00  0.00    -0.191 F 
BRANCH   4   7
HETATM    7  C   UNL     1       1.314   0.248  -0.078  1.00  0.00     0.427 C 
HETATM    8  F   UNL     1       1.265   0.077  -1.448  1.00  0.00    -0.180 F 
HETATM    9  F   UNL     1       2.648   0.306   0.217  1.00  0.00    -0.180 F 
BRANCH   7  10
HETATM   10  S   UNL     1       0.495   1.872   0.280  1.00  0.00     0.284 S 
HETATM   11  O   UNL     1       0.690   2.776  -0.839  1.00  0.00    -0.205 OA
HETATM   12  O   UNL     1       0.844   2.334   1.603  1.00  0.00    -0.205 OA
BRANCH  10  13
HETATM   13  N   UNL     1      -1.155   1.633   0.387  1.00  0.00    -0.215 NA
HETATM   14  H   UNL     1      -1.548   2.240   1.113  1.00  0.00     0.139 HD
BRANCH  13  15
HETATM   15  C   UNL     1      -1.949   1.568  -0.848  1.00  0.00     0.100 C 
HETATM   16  C   UNL     1      -3.414   1.407  -0.474  1.00  0.00     0.021 C 
ENDBRANCH  13  15
ENDBRANCH  10  13
ENDBRANCH   7  10
ENDBRANCH   4   7
ENDBRANCH   1   4
BRANCH   1  17
HETATM   17  C   UNL     1       0.646  -0.622   3.174  1.00  0.00     0.384 C 
HETATM   18  F   UNL     1       1.186  -1.157   4.305  1.00  0.00    -0.192 F 
HETATM   19  F   UNL     1       1.244   0.589   3.070  1.00  0.00    -0.192 F 
BRANCH  17  20
HETATM   20  C   UNL     1      -0.849  -0.451   3.388  1.00  0.00     0.384 C 
HETATM   21  F   UNL     1      -1.078   0.647   4.163  1.00  0.00    -0.192 F 
HETATM   22  F   UNL     1      -1.420  -0.127   2.199  1.00  0.00    -0.192 F 
BRANCH  20  23
HETATM   23  C   UNL     1      -1.619  -1.623   3.979  1.00  0.00     0.387 C 
HETATM   24  F   UNL     1      -2.955  -1.308   3.899  1.00  0.00    -0.192 F 
HETATM   25  F   UNL     1      -1.480  -2.706   3.162  1.00  0.00    -0.192 F 
BRANCH  23  26
HETATM   26  C   UNL     1      -1.332  -2.030   5.415  1.00  0.00     0.409 C 
HETATM   27  F   UNL     1      -2.210  -3.027   5.757  1.00  0.00    -0.189 F 
HETATM   28  F   UNL     1      -0.102  -2.602   5.519  1.00  0.00    -0.189 F 
BRANCH  26  29
HETATM   29  C   UNL     1      -1.475  -0.878   6.394  1.00  0.00     0.461 C 
HETATM   30  F   UNL     1      -2.652  -0.230   6.253  1.00  0.00    -0.165 F 
HETATM   31  F   UNL     1      -1.400  -1.299   7.679  1.00  0.00    -0.165 F 
HETATM   32  F   UNL     1      -0.486   0.033   6.237  1.00  0.00    -0.165 F 
ENDBRANCH  26  29
ENDBRANCH  23  26
ENDBRANCH  20  23
ENDBRANCH  17  20
ENDBRANCH   1  17
TORSDOF 10
