REMARK  3 active torsions:
REMARK  status: ('A' for Active; 'I' for Inactive)
REMARK    1  A    between atoms: S_1  and  C_4 
REMARK    2  A    between atoms: C_4  and  S_5 
REMARK    3  A    between atoms: S_5  and  C_8 
ROOT
HETATM    1  S   UNL     1       0.951   0.015  -0.140  1.00  0.00    -0.040 SA
HETATM    2  C   UNL     1       0.730  -1.173   1.037  1.00  0.00     0.134 C 
HETATM    3  N   UNL     1       0.606  -1.990   1.849  1.00  0.00    -0.184 NA
ENDROOT
BRANCH   1   4
HETATM    4  C   UNL     1       2.763   0.077  -0.070  1.00  0.00     0.171 C 
BRANCH   4   5
HETATM    5  S   UNL     1       3.385   1.305  -1.245  1.00  0.00    -0.092 SA
BRANCH   5   6
HETATM    6  C   UNL     1       5.113   1.236  -0.966  1.00  0.00     0.136 A 
HETATM    7  N   UNL     1       5.937   1.223  -1.987  1.00  0.00    -0.233 NA
HETATM    8  C   UNL     1       7.247   1.260  -1.537  1.00  0.00     0.075 A 
HETATM    9  C   UNL     1       7.400   1.286  -0.150  1.00  0.00     0.036 A 
HETATM   10  C   UNL     1       8.402   1.280  -2.346  1.00  0.00     0.033 A 
HETATM   11  S   UNL     1       5.843   1.276   0.582  1.00  0.00    -0.061 SA
HETATM   12  C   UNL     1       8.666   1.323   0.458  1.00  0.00     0.021 A 
HETATM   13  C   UNL     1       9.795   1.341  -0.366  1.00  0.00     0.002 A 
HETATM   14  C   UNL     1       9.668   1.322  -1.751  1.00  0.00     0.002 A 
ENDBRANCH   5   6
ENDBRANCH   4   5
ENDBRANCH   1   4
TORSDOF 3
