REMARK  4 active torsions:
REMARK  status: ('A' for Active; 'I' for Inactive)
REMARK    1  A    between atoms: S_2  and  N_5 
REMARK    2  A    between atoms: N_5  and  C_6 
REMARK    3  A    between atoms: C_10  and  N_14 
REMARK    4  A    between atoms: N_17  and  C_19 
ROOT
HETATM    1  C   UNL     1       3.185  -2.446  -1.387  1.00  0.00     0.066 A 
HETATM    2  C   UNL     1       2.300  -2.753  -2.422  1.00  0.00     0.063 A 
HETATM    3  C   UNL     1       3.763  -3.483  -0.638  1.00  0.00     0.065 A 
HETATM    4  C   UNL     1       1.998  -4.077  -2.709  1.00  0.00     0.052 A 
HETATM    5  C   UNL     1       3.496  -4.843  -0.920  1.00  0.00     0.087 A 
HETATM    6  C   UNL     1       2.590  -5.117  -1.976  1.00  0.00     0.064 A 
HETATM    7 CL   UNL     1       1.582  -1.517  -3.391  1.00  0.00    -0.082 Cl
HETATM    8 CL   UNL     1       2.169  -6.700  -2.550  1.00  0.00    -0.082 Cl
ENDROOT
BRANCH   5   9
HETATM    9  N   UNL     1       4.151  -5.857  -0.170  1.00  0.00    -0.179 N 
HETATM   10  N   UNL     1       3.761  -7.171  -0.259  1.00  0.00    -0.149 NA
HETATM   11  C   UNL     1       4.574  -7.820   0.519  1.00  0.00     0.132 A 
HETATM   12  N   UNL     1       5.495  -7.056   1.108  1.00  0.00    -0.226 N 
HETATM   13  C   UNL     1       4.500  -9.301   0.693  1.00  0.00     0.093 C 
HETATM   14  C   UNL     1       5.239  -5.766   0.725  1.00  0.00     0.355 A 
HETATM   15  O   UNL     1       5.872  -4.788   1.087  1.00  0.00    -0.244 OA
BRANCH  12  16
HETATM   16  C   UNL     1       6.437  -7.377   2.123  1.00  0.00     0.470 C 
HETATM   17  F   UNL     1       5.848  -7.286   3.341  1.00  0.00    -0.190 F 
HETATM   18  F   UNL     1       6.862  -8.659   1.997  1.00  0.00    -0.190 F 
ENDBRANCH  12  16
ENDBRANCH   5   9
BRANCH   1  19
HETATM   19  N   UNL     1       3.521  -1.080  -1.111  1.00  0.00    -0.283 N 
HETATM   20  H   UNL     1       3.481  -0.447  -1.913  1.00  0.00     0.178 HD
BRANCH  19  21
HETATM   21  S   UNL     1       2.937  -0.337   0.283  1.00  0.00     0.227 S 
HETATM   22  C   UNL     1       1.180  -0.261  -0.007  1.00  0.00     0.186 C 
HETATM   23  O   UNL     1       3.174  -1.196   1.423  1.00  0.00    -0.206 OA
HETATM   24  O   UNL     1       3.434   1.020   0.241  1.00  0.00    -0.206 OA
ENDBRANCH  19  21
ENDBRANCH   1  19
TORSDOF 4
