REMARK  2 active torsions:
REMARK  status: ('A' for Active; 'I' for Inactive)
REMARK    1  A    between atoms: C_3  and  C_13 
REMARK    2  A    between atoms: C_13  and  O_15 
ROOT
HETATM    1 CL   UNL     1       1.017   0.238   0.082  1.00  0.00    -0.083 Cl
HETATM    2  C   UNL     1       2.738   0.047   0.171  1.00  0.00     0.053 A 
HETATM    3  C   UNL     1       3.413  -1.188   0.280  1.00  0.00     0.088 A 
HETATM    4  C   UNL     1       4.835  -1.196   0.308  1.00  0.00     0.085 A 
HETATM    5  C   UNL     1       5.523   0.046   0.262  1.00  0.00    -0.005 A 
HETATM    6  C   UNL     1       4.828   1.252   0.174  1.00  0.00     0.015 A 
HETATM    7  C   UNL     1       3.445   1.252   0.119  1.00  0.00     0.026 A 
HETATM    8  C   UNL     1       6.927   0.074   0.302  1.00  0.00     0.039 A 
HETATM    9  C   UNL     1       7.642  -1.109   0.372  1.00  0.00     0.052 A 
HETATM   10  C   UNL     1       6.927  -2.282   0.400  1.00  0.00     0.141 A 
HETATM   11  N   UNL     1       5.573  -2.329   0.371  1.00  0.00    -0.257 NA
HETATM   12 CL   UNL     1       9.355  -1.105   0.416  1.00  0.00    -0.083 Cl
ENDROOT
BRANCH   3  13
HETATM   13  C   UNL     1       2.712  -2.525   0.387  1.00  0.00     0.180 C 
HETATM   14  O   UNL     1       3.277  -3.596   0.528  1.00  0.00    -0.646 OA
BRANCH  13  15
HETATM   15  O   UNL     1       1.362  -2.520   0.337  1.00  0.00    -0.773 OA
HETATM   16  H   UNL     1       0.923  -1.657   0.235  1.00  0.00     0.167 HD
ENDBRANCH  13  15
ENDBRANCH   3  13
TORSDOF 2
