REMARK  5 active torsions:
REMARK  status: ('A' for Active; 'I' for Inactive)
REMARK    1  A    between atoms: N_1  and  C_9 
REMARK    2  A    between atoms: C_3  and  C_11 
REMARK    3  A    between atoms: C_6  and  C_10 
REMARK    4  A    between atoms: C_9  and  O_12 
REMARK    5  A    between atoms: C_10  and  O_12 
ROOT
HETATM    1  C   UNL     1       3.906   0.001  -0.017  1.00  0.00     0.316 C 
ENDROOT
BRANCH   1   2
HETATM    2  N   UNL     1       2.464  -0.063  -0.103  1.00  0.00    -0.258 N 
HETATM    3  C   UNL     1       1.668  -1.161  -0.043  1.00  0.00     0.259 A 
HETATM    4  C   UNL     1       0.283  -0.676  -0.034  1.00  0.00     0.022 A 
HETATM    5  O   UNL     1       1.954  -2.344   0.014  1.00  0.00    -0.267 OA
HETATM    6  C   UNL     1      -0.927  -1.518   0.023  1.00  0.00     0.045 C 
HETATM    7  C   UNL     1       0.306   0.653  -0.068  1.00  0.00     0.022 A 
HETATM    8  C   UNL     1      -2.225  -0.721  -0.179  1.00  0.00     0.005 C 
HETATM    9  C   UNL     1      -2.196   0.781   0.162  1.00  0.00     0.005 C 
HETATM   10  C   UNL     1      -0.874   1.537  -0.054  1.00  0.00     0.045 C 
HETATM   11  C   UNL     1       1.710   1.069  -0.075  1.00  0.00     0.259 A 
HETATM   12  O   UNL     1       2.091   2.225  -0.028  1.00  0.00    -0.267 OA
ENDBRANCH   1   2
BRANCH   1  13
HETATM   13  O   UNL     1       4.489  -1.294  -0.029  1.00  0.00    -0.301 OA
BRANCH  13  14
HETATM   14  C   UNL     1       5.799  -1.525   0.237  1.00  0.00     0.266 C 
HETATM   15  O   UNL     1       6.191  -2.648   0.531  1.00  0.00    -0.265 OA
BRANCH  14  16
HETATM   16  C   UNL     1       6.824  -0.461   0.034  1.00  0.00     0.102 A 
HETATM   17  C   UNL     1       7.509   0.073   1.304  1.00  0.00    -0.027 A 
HETATM   18  C   UNL     1       6.847  -0.080   2.655  1.00  0.00     0.016 C 
HETATM   19  C   UNL     1       9.015  -0.021   1.370  1.00  0.00     0.016 C 
HETATM   20  C   UNL     1       6.824   1.018   0.337  1.00  0.00     0.031 A 
BRANCH  20  21
HETATM   21  C   UNL     1       7.671   1.927  -0.461  1.00  0.00    -0.018 C 
HETATM   22  C   UNL     1       7.846   3.252  -0.287  1.00  0.00    -0.091 C 
HETATM   23  C   UNL     1       7.134   4.077   0.750  1.00  0.00     0.042 C 
HETATM   24  C   UNL     1       8.819   4.027  -1.136  1.00  0.00     0.042 C 
ENDBRANCH  20  21
ENDBRANCH  14  16
ENDBRANCH  13  14
ENDBRANCH   1  13
TORSDOF 5
