REMARK  7 active torsions:
REMARK  status: ('A' for Active; 'I' for Inactive)
REMARK    1  A    between atoms: C_1  and  S_7 
REMARK    2  A    between atoms: C_2  and  S_9 
REMARK    3  A    between atoms: S_7  and  N_8 
REMARK       I    between atoms: N_8  and  C_11 
REMARK    4  A    between atoms: S_9  and  C_10 
REMARK       I    between atoms: C_11  and  N_12 
REMARK    5  A    between atoms: N_12  and  C_14 
REMARK    6  A    between atoms: C_17  and  O_25 
REMARK    7  A    between atoms: C_18  and  O_26 
ROOT
HETATM    1  N   UNL     1       2.528  -1.042  -1.801  1.00  0.00    -0.129 NA
HETATM    2  C   UNL     1       2.536  -2.265  -2.470  1.00  0.00     0.326 C 
HETATM    3  N   UNL     1       1.618  -3.229  -2.235  1.00  0.00    -0.141 N 
HETATM    4  O   UNL     1       3.382  -2.440  -3.340  1.00  0.00    -0.252 OA
HETATM    5  H   UNL     1       2.861  -0.334  -2.461  1.00  0.00     0.151 HD
HETATM    6  H   UNL     1       1.894  -4.128  -2.595  1.00  0.00     0.189 HD
ENDROOT
BRANCH   1   7
HETATM    7  S   UNL     1       3.703  -0.798  -0.563  1.00  0.00     0.268 S 
HETATM    8  O   UNL     1       4.689   0.095  -1.153  1.00  0.00    -0.204 OA
HETATM    9  O   UNL     1       4.107  -2.024   0.062  1.00  0.00    -0.204 OA
BRANCH   7  10
HETATM   10  C   UNL     1       2.644   0.192   0.552  1.00  0.00     0.188 C 
HETATM   11  N   UNL     1       2.673   1.488   0.095  1.00  0.00    -0.247 NA
HETATM   12  C   UNL     1       1.496   2.092  -0.125  1.00  0.00     0.118 C 
HETATM   13  C   UNL     1       0.289   1.478   0.138  1.00  0.00     0.021 C 
HETATM   14  C   UNL     1       0.293   0.232   0.776  1.00  0.00     0.028 C 
HETATM   15  C   UNL     1       1.492  -0.435   1.007  1.00  0.00     0.100 C 
BRANCH  15  16
HETATM   16  S   UNL     1       1.641  -1.988   1.837  1.00  0.00     0.178 S 
HETATM   17  O   UNL     1       1.833  -3.003   0.825  1.00  0.00    -0.223 OA
HETATM   18  O   UNL     1       2.615  -1.773   2.889  1.00  0.00    -0.223 OA
BRANCH  16  19
HETATM   19  C   UNL     1       0.124  -2.464   2.610  1.00  0.00     0.141 C 
HETATM   20  C   UNL     1       0.005  -2.162   4.084  1.00  0.00     0.021 C 
ENDBRANCH  16  19
ENDBRANCH  15  16
ENDBRANCH   7  10
ENDBRANCH   1   7
BRANCH   3  21
HETATM   21  C   UNL     1       0.400  -3.293  -1.582  1.00  0.00     0.735 A 
HETATM   22  N   UNL     1      -0.352  -2.226  -1.262  1.00  0.00    -0.038 NA
HETATM   23  C   UNL     1      -1.563  -2.479  -0.701  1.00  0.00     0.187 A 
HETATM   24  C   UNL     1      -2.006  -3.739  -0.386  1.00  0.00     0.117 A 
HETATM   25  C   UNL     1      -1.143  -4.745  -0.728  1.00  0.00     0.187 A 
HETATM   26  N   UNL     1       0.016  -4.559  -1.367  1.00  0.00    -0.038 NA
BRANCH  23  27
HETATM   27  O   UNL     1      -2.357  -1.367  -0.557  1.00  0.00    -0.339 OA
HETATM   28  C   UNL     1      -3.110  -1.251   0.648  1.00  0.00     0.211 C 
ENDBRANCH  23  27
BRANCH  25  29
HETATM   29  O   UNL     1      -1.501  -6.051  -0.510  1.00  0.00    -0.339 OA
HETATM   30  C   UNL     1      -1.129  -6.444   0.810  1.00  0.00     0.211 C 
ENDBRANCH  25  29
ENDBRANCH   3  21
TORSDOF 7
