REMARK  7 active torsions:
REMARK  status: ('A' for Active; 'I' for Inactive)
REMARK    1  A    between atoms: C_1  and  O_2 
REMARK    2  A    between atoms: O_2  and  C_5 
REMARK    3  A    between atoms: C_10  and  O_13 
REMARK    4  A    between atoms: O_13  and  C_15 
REMARK    5  A    between atoms: C_15  and  C_16 
REMARK    6  A    between atoms: C_16  and  O_17 
REMARK    7  A    between atoms: O_17  and  C_19 
ROOT
HETATM    1  C   UNL     1      -1.379   0.166   0.038  1.00  0.00     0.076 C 
HETATM    2  C   UNL     1      -0.524   1.228   0.309  1.00  0.00     0.040 C 
HETATM    3  C   UNL     1      -0.843  -1.038  -0.440  1.00  0.00     0.040 C 
HETATM    4  C   UNL     1       0.820   1.143  -0.050  1.00  0.00     0.039 C 
HETATM    5  C   UNL     1       0.524  -1.151  -0.724  1.00  0.00     0.039 C 
HETATM    6  C   UNL     1       1.350  -0.048  -0.543  1.00  0.00     0.069 C 
ENDROOT
BRANCH   6   7
HETATM    7  O   UNL     1       2.670  -0.007  -0.881  1.00  0.00    -0.349 OA
BRANCH   7   8
HETATM    8  C   UNL     1       3.461  -1.117  -0.430  1.00  0.00     0.207 C 
BRANCH   8   9
HETATM    9  C   UNL     1       4.900  -0.602  -0.214  1.00  0.00     0.150 C 
HETATM   10  C   UNL     1       5.905  -1.747  -0.295  1.00  0.00     0.042 C 
BRANCH   9  11
HETATM   11  O   UNL     1       5.014  -0.059   1.117  1.00  0.00    -0.327 OA
BRANCH  11  12
HETATM   12  C   UNL     1       4.686   1.276   1.153  1.00  0.00     0.164 A 
HETATM   13  C   UNL     1       3.641   1.655   1.980  1.00  0.00     0.058 A 
HETATM   14  C   UNL     1       3.308   3.003   2.041  1.00  0.00     0.006 A 
HETATM   15  C   UNL     1       4.055   3.918   1.308  1.00  0.00     0.019 A 
HETATM   16  C   UNL     1       5.113   3.443   0.546  1.00  0.00     0.119 A 
HETATM   17  N   UNL     1       5.449   2.138   0.451  1.00  0.00    -0.237 NA
ENDBRANCH  11  12
ENDBRANCH   9  11
ENDBRANCH   8   9
ENDBRANCH   7   8
ENDBRANCH   6   7
BRANCH   1  18
HETATM   18  O   UNL     1      -2.722   0.162   0.317  1.00  0.00    -0.311 OA
BRANCH  18  19
HETATM   19  C   UNL     1      -3.571   1.170  -0.088  1.00  0.00     0.076 A 
HETATM   20  C   UNL     1      -4.928   0.857   0.067  1.00  0.00     0.037 A 
HETATM   21  C   UNL     1      -5.924   1.786  -0.246  1.00  0.00     0.003 A 
HETATM   22  C   UNL     1      -5.572   3.054  -0.700  1.00  0.00     0.000 A 
HETATM   23  C   UNL     1      -4.229   3.372  -0.877  1.00  0.00     0.003 A 
HETATM   24  C   UNL     1      -3.234   2.425  -0.599  1.00  0.00     0.037 A 
ENDBRANCH  18  19
ENDBRANCH   1  18
TORSDOF 7
