REMARK  2 active torsions:
REMARK  status: ('A' for Active; 'I' for Inactive)
REMARK    1  A    between atoms: C_5  and  N_6 
REMARK       I    between atoms: N_6  and  C_7 
REMARK       I    between atoms: C_7  and  N_9 
REMARK    2  A    between atoms: N_9  and  C_10 
ROOT
HETATM    1  N   UNL     1      -1.034   2.436   0.050  1.00  0.00    -0.301 N 
HETATM    2  C   UNL     1      -2.412   2.546  -0.021  1.00  0.00     0.325 C 
HETATM    3  O   UNL     1      -3.157   1.577  -0.112  1.00  0.00    -0.247 OA
HETATM    4  N   UNL     1      -2.821   3.869   0.020  1.00  0.00    -0.309 N 
HETATM    5  H   UNL     1      -0.451   3.256   0.086  1.00  0.00     0.171 HD
HETATM    6  H   UNL     1      -2.101   4.573   0.059  1.00  0.00     0.170 HD
ENDROOT
BRANCH   1   7
HETATM    7  C   UNL     1      -0.411   1.208   0.037  1.00  0.00     0.111 A 
HETATM    8  S   UNL     1       1.295   1.197   0.076  1.00  0.00     0.021 SA
HETATM    9  N   UNL     1       1.377  -0.477   0.036  1.00  0.00    -0.036 NA
HETATM   10  N   UNL     1       0.183  -1.048  -0.002  1.00  0.00    -0.179 NA
HETATM   11  C   UNL     1      -0.835  -0.104  -0.002  1.00  0.00     0.173 A 
ENDBRANCH   1   7
BRANCH   4  12
HETATM   12  C   UNL     1      -4.150   4.348  -0.036  1.00  0.00     0.036 A 
HETATM   13  C   UNL     1      -5.275   3.520  -0.073  1.00  0.00     0.029 A 
HETATM   14  C   UNL     1      -6.561   4.064  -0.149  1.00  0.00     0.002 A 
HETATM   15  C   UNL     1      -6.736   5.443  -0.185  1.00  0.00     0.000 A 
HETATM   16  C   UNL     1      -5.625   6.281  -0.137  1.00  0.00     0.002 A 
HETATM   17  C   UNL     1      -4.338   5.736  -0.060  1.00  0.00     0.029 A 
ENDBRANCH   4  12
TORSDOF 2
