REMARK  8 active torsions:
REMARK  status: ('A' for Active; 'I' for Inactive)
REMARK    1  A    between atoms: C_1  and  C_2 
REMARK    2  A    between atoms: C_2  and  C_5 
REMARK    3  A    between atoms: C_2  and  C_6 
REMARK    4  A    between atoms: C_5  and  O_9 
REMARK    5  A    between atoms: O_9  and  C_14 
REMARK    6  A    between atoms: C_14  and  C_16 
REMARK    7  A    between atoms: C_21  and  O_23 
REMARK    8  A    between atoms: O_23  and  C_25 
ROOT
HETATM    1  C   UNL     1      -5.287   0.951   1.604  1.00  0.00     0.271 C 
HETATM    2  C   UNL     1      -5.891   0.869   2.946  1.00  0.00     0.097 C 
HETATM    3  N   UNL     1      -6.372   0.890   4.003  1.00  0.00    -0.194 NA
ENDROOT
BRANCH   1   4
HETATM    4  O   UNL     1      -4.518  -0.232   1.244  1.00  0.00    -0.296 OA
BRANCH   4   5
HETATM    5  C   UNL     1      -3.170  -0.201   1.349  1.00  0.00     0.269 C 
HETATM    6  O   UNL     1      -2.632  -0.666   2.349  1.00  0.00    -0.264 OA
BRANCH   5   7
HETATM    7  C   UNL     1      -2.414   0.118   0.021  1.00  0.00     0.121 C 
BRANCH   7   8
HETATM    8  C   UNL     1      -0.906   0.023   0.242  1.00  0.00    -0.044 C 
HETATM    9  C   UNL     1      -0.151   1.096   0.736  1.00  0.00     0.010 C 
HETATM   10  C   UNL     1       1.244   1.038   0.736  1.00  0.00     0.024 C 
HETATM   11  C   UNL     1       1.888  -0.130   0.339  1.00  0.00     0.034 C 
HETATM   12  C   UNL     1       1.149  -1.252  -0.020  1.00  0.00     0.024 C 
HETATM   13 CL   UNL     1       3.606  -0.181   0.278  1.00  0.00    -0.084 Cl
HETATM   14  C   UNL     1      -0.243  -1.176  -0.071  1.00  0.00     0.010 C 
ENDBRANCH   7   8
BRANCH   7  15
HETATM   15  C   UNL     1      -2.872   1.411  -0.750  1.00  0.00    -0.005 C 
HETATM   16  C   UNL     1      -1.841   2.186  -1.590  1.00  0.00     0.011 C 
HETATM   17  C   UNL     1      -3.949   1.044  -1.775  1.00  0.00     0.011 C 
ENDBRANCH   7  15
ENDBRANCH   5   7
ENDBRANCH   4   5
ENDBRANCH   1   4
BRANCH   1  18
HETATM   18  C   UNL     1      -6.337   1.083   0.504  1.00  0.00    -0.013 C 
HETATM   19  C   UNL     1      -6.806  -0.084  -0.138  1.00  0.00     0.048 C 
HETATM   20  C   UNL     1      -7.292  -0.017  -1.442  1.00  0.00     0.076 C 
HETATM   21  C   UNL     1      -7.574   1.236  -1.992  1.00  0.00     0.037 C 
HETATM   22  C   UNL     1      -7.315   2.405  -1.268  1.00  0.00     0.003 C 
HETATM   23  C   UNL     1      -6.669   2.334  -0.032  1.00  0.00     0.011 C 
BRANCH  20  24
HETATM   24  O   UNL     1      -7.448  -1.096  -2.287  1.00  0.00    -0.311 OA
BRANCH  24  25
HETATM   25  C   UNL     1      -6.933  -2.332  -1.959  1.00  0.00     0.076 A 
HETATM   26  C   UNL     1      -5.620  -2.572  -1.538  1.00  0.00     0.037 A 
HETATM   27  C   UNL     1      -5.219  -3.862  -1.177  1.00  0.00     0.003 A 
HETATM   28  C   UNL     1      -6.109  -4.926  -1.304  1.00  0.00     0.000 A 
HETATM   29  C   UNL     1      -7.389  -4.703  -1.810  1.00  0.00     0.003 A 
HETATM   30  C   UNL     1      -7.797  -3.410  -2.140  1.00  0.00     0.037 A 
ENDBRANCH  24  25
ENDBRANCH  20  24
ENDBRANCH   1  18
TORSDOF 8
