REMARK  5 active torsions:
REMARK  status: ('A' for Active; 'I' for Inactive)
REMARK    1  A    between atoms: C_1  and  C_4 
REMARK    2  A    between atoms: C_2  and  S_5 
REMARK    3  A    between atoms: S_5  and  C_11 
REMARK    4  A    between atoms: C_15  and  O_18 
REMARK    5  A    between atoms: C_16  and  O_19 
ROOT
HETATM    1  S   UNL     1       0.391  -3.263   0.066  1.00  0.00    -0.049 SA
ENDROOT
BRANCH   1   2
HETATM    2  C   UNL     1       0.469  -1.471   0.072  1.00  0.00     0.027 A 
HETATM    3  C   UNL     1       1.497  -0.637  -0.430  1.00  0.00     0.079 A 
HETATM    4  C   UNL     1       1.286   0.758  -0.429  1.00  0.00     0.052 A 
HETATM    5  C   UNL     1       0.089   1.315   0.047  1.00  0.00     0.025 A 
HETATM    6 CL   UNL     1       2.420   1.897  -1.084  1.00  0.00    -0.083 Cl
HETATM    7  C   UNL     1      -0.922   0.497   0.527  1.00  0.00     0.003 A 
HETATM    8  C   UNL     1      -0.730  -0.880   0.536  1.00  0.00     0.020 A 
BRANCH   3   9
HETATM    9  C   UNL     1       2.766  -1.190  -1.006  1.00  0.00     0.212 C 
HETATM   10  O   UNL     1       3.864  -0.767  -0.527  1.00  0.00    -0.644 OA
HETATM   11  O   UNL     1       2.648  -2.036  -1.949  1.00  0.00    -0.644 OA
ENDBRANCH   3   9
ENDBRANCH   1   2
BRANCH   1  12
HETATM   12  C   UNL     1       1.929  -3.880   0.692  1.00  0.00     0.198 C 
HETATM   13  N   UNL     1       2.130  -5.197   0.482  1.00  0.00    -0.198 NA
HETATM   14  C   UNL     1       3.299  -5.695   0.904  1.00  0.00     0.170 C 
HETATM   15  C   UNL     1       4.266  -4.950   1.518  1.00  0.00     0.116 C 
HETATM   16  C   UNL     1       3.923  -3.640   1.737  1.00  0.00     0.170 C 
HETATM   17  N   UNL     1       2.740  -3.099   1.413  1.00  0.00    -0.198 NA
BRANCH  14  18
HETATM   18  O   UNL     1       3.576  -7.039   0.731  1.00  0.00    -0.339 OA
HETATM   19  C   UNL     1       2.419  -7.790   0.375  1.00  0.00     0.211 C 
ENDBRANCH  14  18
BRANCH  16  20
HETATM   20  O   UNL     1       4.807  -2.823   2.400  1.00  0.00    -0.339 OA
HETATM   21  C   UNL     1       5.838  -2.418   1.495  1.00  0.00     0.211 C 
ENDBRANCH  16  20
ENDBRANCH   1  12
TORSDOF 5
