REMARK  8 active torsions:
REMARK  status: ('A' for Active; 'I' for Inactive)
REMARK    1  A    between atoms: O_2  and  P_5 
REMARK    2  A    between atoms: O_4  and  P_5 
REMARK    3  A    between atoms: P_5  and  O_9 
REMARK    4  A    between atoms: P_5  and  O_11 
REMARK    5  A    between atoms: C_6  and  C_8 
REMARK    6  A    between atoms: C_7  and  O_9 
REMARK    7  A    between atoms: C_8  and  O_10 
REMARK    8  A    between atoms: C_8  and  O_12 
ROOT
HETATM    1  C   UNL     1       2.085  -1.637  -1.014  1.00  0.00     0.065 C 
HETATM    2  C   UNL     1       0.918  -2.289  -1.178  1.00  0.00     0.054 C 
HETATM    3  C   UNL     1      -0.243  -2.194  -0.233  1.00  0.00     0.076 C 
ENDROOT
BRANCH   2   4
HETATM    4  O   UNL     1       0.659  -3.157  -2.248  1.00  0.00    -0.266 OA
BRANCH   4   5
HETATM    5  P   UNL     1       1.783  -3.965  -3.286  1.00  0.00     0.385 P 
BRANCH   5   6
HETATM    6  O   UNL     1       2.234  -2.509  -3.886  1.00  0.00    -0.314 OA
HETATM    7  H   UNL     1       1.637  -2.172  -4.578  1.00  0.00     0.221 HD
ENDBRANCH   5   6
BRANCH   5   8
HETATM    8  O   UNL     1       2.867  -4.150  -2.064  1.00  0.00    -0.309 OA
HETATM    9  C   UNL     1       2.566  -5.124  -1.078  1.00  0.00     0.214 C 
ENDBRANCH   5   8
BRANCH   5  10
HETATM   10  O   UNL     1       2.907  -4.774  -4.323  1.00  0.00    -0.309 OA
HETATM   11  C   UNL     1       3.954  -4.071  -4.968  1.00  0.00     0.214 C 
ENDBRANCH   5  10
ENDBRANCH   4   5
ENDBRANCH   2   4
BRANCH   1  12
HETATM   12  C   UNL     1       2.550  -0.821   0.150  1.00  0.00     0.282 C 
BRANCH  12  13
HETATM   13  O   UNL     1       2.531   0.562  -0.158  1.00  0.00    -0.363 OA
HETATM   14  C   UNL     1       1.249   1.139   0.036  1.00  0.00     0.205 C 
ENDBRANCH  12  13
BRANCH  12  15
HETATM   15  O   UNL     1       3.898  -1.167   0.434  1.00  0.00    -0.368 OA
HETATM   16  H   UNL     1       4.376  -1.015  -0.398  1.00  0.00     0.213 HD
ENDBRANCH  12  15
ENDBRANCH   1  12
TORSDOF 8
