REMARK  7 active torsions:
REMARK  status: ('A' for Active; 'I' for Inactive)
REMARK    1  A    between atoms: C_1  and  C_2 
REMARK    2  A    between atoms: C_2  and  O_7 
REMARK    3  A    between atoms: N_13  and  C_15 
REMARK    4  A    between atoms: C_15  and  C_16 
REMARK    5  A    between atoms: C_16  and  C_17 
REMARK    6  A    between atoms: C_17  and  C_18 
REMARK    7  A    between atoms: C_18  and  C_19 
ROOT
HETATM    1  C   UNL     1      -2.690  -0.117  -0.044  1.00  0.00     0.088 C 
HETATM    2  C   UNL     1      -3.188  -1.464  -0.607  1.00  0.00     0.073 C 
HETATM    3  C   UNL     1      -3.336   0.979  -0.923  1.00  0.00     0.073 C 
HETATM    4  C   UNL     1      -2.811  -1.604  -2.082  1.00  0.00     0.276 C 
HETATM    5  C   UNL     1      -3.010   0.784  -2.406  1.00  0.00     0.276 C 
HETATM    6  N   UNL     1      -3.376  -0.542  -2.928  1.00  0.00     0.088 N 
ENDROOT
BRANCH   6   7
HETATM    7  C   UNL     1      -4.823  -0.670  -3.173  1.00  0.00     0.272 C 
BRANCH   7   8
HETATM    8  C   UNL     1      -5.124  -1.945  -3.970  1.00  0.00     0.038 C 
BRANCH   8   9
HETATM    9  C   UNL     1      -6.575  -2.051  -4.424  1.00  0.00     0.085 C 
BRANCH   9  10
HETATM   10  C   UNL     1      -7.023  -3.431  -4.900  1.00  0.00     0.159 C 
HETATM   11  O   UNL     1      -8.217  -3.730  -4.926  1.00  0.00    -0.292 OA
BRANCH  10  12
HETATM   12  C   UNL     1      -6.039  -4.465  -5.319  1.00  0.00     0.010 A 
HETATM   13  C   UNL     1      -4.961  -4.170  -6.162  1.00  0.00     0.018 A 
HETATM   14  C   UNL     1      -4.022  -5.160  -6.463  1.00  0.00     0.043 A 
HETATM   15  C   UNL     1      -4.191  -6.445  -5.958  1.00  0.00     0.116 A 
HETATM   16  C   UNL     1      -5.287  -6.765  -5.166  1.00  0.00     0.043 A 
HETATM   17  F   UNL     1      -3.286  -7.389  -6.246  1.00  0.00    -0.206 F 
HETATM   18  C   UNL     1      -6.217  -5.774  -4.846  1.00  0.00     0.018 A 
ENDBRANCH  10  12
ENDBRANCH   9  10
ENDBRANCH   8   9
ENDBRANCH   7   8
ENDBRANCH   6   7
BRANCH   1  19
HETATM   19  C   UNL     1      -1.160  -0.016   0.096  1.00  0.00    -0.024 A 
HETATM   20  C   UNL     1      -0.521   1.236   0.172  1.00  0.00     0.012 A 
HETATM   21  C   UNL     1       0.873   1.341   0.241  1.00  0.00     0.024 A 
HETATM   22  C   UNL     1       1.655   0.193   0.266  1.00  0.00     0.034 A 
HETATM   23  C   UNL     1       1.053  -1.058   0.253  1.00  0.00     0.024 A 
HETATM   24 CL   UNL     1       3.369   0.318   0.319  1.00  0.00    -0.084 Cl
HETATM   25  C   UNL     1      -0.340  -1.159   0.184  1.00  0.00     0.012 A 
ENDBRANCH   1  19
BRANCH   1  26
HETATM   26  O   UNL     1      -3.241   0.019   1.274  1.00  0.00    -0.385 OA
HETATM   27  H   UNL     1      -2.595  -0.342   1.906  1.00  0.00     0.211 HD
ENDBRANCH   1  26
TORSDOF 7
