REMARK  8 active torsions:
REMARK  status: ('A' for Active; 'I' for Inactive)
REMARK    1  A    between atoms: C_1  and  C_3 
REMARK    2  A    between atoms: C_1  and  C_4 
REMARK    3  A    between atoms: C_2  and  C_5 
REMARK    4  A    between atoms: C_2  and  C_12 
REMARK    5  A    between atoms: N_8  and  C_15 
REMARK    6  A    between atoms: C_9  and  O_13 
REMARK    7  A    between atoms: O_13  and  C_14 
REMARK    8  A    between atoms: C_14  and  C_15 
ROOT
HETATM    1  C   UNL     1       1.053   0.061  -0.188  1.00  0.00    -0.009 C 
HETATM    2  C   UNL     1       0.371  -1.133  -0.049  1.00  0.00    -0.036 C 
ENDROOT
BRANCH   1   3
HETATM    3  C   UNL     1       0.342   1.430  -0.317  1.00  0.00    -0.024 C 
HETATM    4  C   UNL     1      -0.954   1.596  -0.830  1.00  0.00     0.015 C 
HETATM    5  C   UNL     1      -1.653   2.813  -0.781  1.00  0.00     0.037 C 
HETATM    6  C   UNL     1      -1.036   3.961  -0.311  1.00  0.00     0.068 C 
HETATM    7  C   UNL     1       0.290   3.873   0.081  1.00  0.00     0.037 C 
HETATM    8  C   UNL     1       0.964   2.637   0.057  1.00  0.00     0.015 C 
BRANCH   6   9
HETATM    9  O   UNL     1      -1.812   5.085  -0.300  1.00  0.00    -0.349 OA
BRANCH   9  10
HETATM   10  C   UNL     1      -1.104   6.325  -0.202  1.00  0.00     0.206 C 
BRANCH  10  11
HETATM   11  C   UNL     1      -2.066   7.471  -0.553  1.00  0.00     0.297 C 
BRANCH  11  12
HETATM   12  N   UNL     1      -1.445   8.811  -0.518  1.00  0.00     0.082 N 
HETATM   13  C   UNL     1      -0.385   8.949  -1.521  1.00  0.00     0.309 C 
HETATM   14  C   UNL     1      -2.467   9.838  -0.742  1.00  0.00     0.309 C 
ENDBRANCH  11  12
ENDBRANCH  10  11
ENDBRANCH   9  10
ENDBRANCH   6   9
ENDBRANCH   1   3
BRANCH   1  15
HETATM   15  C   UNL     1       2.573  -0.018  -0.131  1.00  0.00    -0.025 A 
HETATM   16  C   UNL     1       3.301   0.675   0.854  1.00  0.00     0.012 A 
HETATM   17  C   UNL     1       4.701   0.718   0.842  1.00  0.00     0.001 A 
HETATM   18  C   UNL     1       5.411  -0.039  -0.081  1.00  0.00     0.000 A 
HETATM   19  C   UNL     1       4.718  -0.811  -1.008  1.00  0.00     0.001 A 
HETATM   20  C   UNL     1       3.317  -0.761  -1.062  1.00  0.00     0.012 A 
ENDBRANCH   1  15
BRANCH   2  21
HETATM   21  C   UNL     1      -1.109  -1.233   0.015  1.00  0.00    -0.029 A 
HETATM   22  C   UNL     1      -1.836  -1.683  -1.101  1.00  0.00     0.012 A 
HETATM   23  C   UNL     1      -3.231  -1.724  -1.067  1.00  0.00     0.001 A 
HETATM   24  C   UNL     1      -3.909  -1.332   0.086  1.00  0.00     0.000 A 
HETATM   25  C   UNL     1      -3.195  -0.910   1.208  1.00  0.00     0.001 A 
HETATM   26  C   UNL     1      -1.800  -0.863   1.177  1.00  0.00     0.012 A 
ENDBRANCH   2  21
BRANCH   2  27
HETATM   27  C   UNL     1       1.036  -2.519   0.074  1.00  0.00     0.036 C 
HETATM   28  C   UNL     1       0.173  -3.744   0.412  1.00  0.00     0.010 C 
ENDBRANCH   2  27
TORSDOF 8
