REMARK  9 active torsions:
REMARK  status: ('A' for Active; 'I' for Inactive)
REMARK    1  A    between atoms: C_1  and  N_19 
REMARK    2  A    between atoms: C_2  and  N_8 
REMARK    3  A    between atoms: C_3  and  N_7 
REMARK    4  A    between atoms: C_4  and  C_15 
REMARK    5  A    between atoms: C_5  and  N_22 
REMARK    6  A    between atoms: N_7  and  C_9 
REMARK    7  A    between atoms: N_7  and  C_10 
REMARK    8  A    between atoms: C_9  and  C_11 
REMARK    9  A    between atoms: C_10  and  C_13 
ROOT
HETATM    1  C   UNL     1      -0.592   1.108   0.262  1.00  0.00     0.158 C 
HETATM    2  C   UNL     1      -1.342  -0.119   0.316  1.00  0.00     0.076 C 
HETATM    3  C   UNL     1       0.697   1.270  -0.335  1.00  0.00     0.099 C 
HETATM    4  C   UNL     1      -0.830  -1.234  -0.363  1.00  0.00     0.079 C 
HETATM    5  C   UNL     1       1.087   0.124  -1.065  1.00  0.00     0.132 C 
HETATM    6  C   UNL     1       0.374  -1.093  -1.067  1.00  0.00     0.057 C 
ENDROOT
BRANCH   3   7
HETATM    7  N   UNL     1       1.538   2.386  -0.153  1.00  0.00    -0.377 N 
BRANCH   7   8
HETATM    8  C   UNL     1       2.991   2.216   0.094  1.00  0.00     0.123 C 
BRANCH   8   9
HETATM    9  C   UNL     1       3.319   1.213   1.203  1.00  0.00     0.015 C 
HETATM   10  C   UNL     1       4.825   1.118   1.409  1.00  0.00     0.006 C 
ENDBRANCH   8   9
ENDBRANCH   7   8
BRANCH   7  11
HETATM   11  C   UNL     1       0.983   3.763  -0.224  1.00  0.00     0.123 C 
BRANCH  11  12
HETATM   12  C   UNL     1       1.988   4.902  -0.427  1.00  0.00     0.015 C 
HETATM   13  C   UNL     1       1.280   6.242  -0.586  1.00  0.00     0.006 C 
ENDBRANCH  11  12
ENDBRANCH   7  11
ENDBRANCH   3   7
BRANCH   1  14
HETATM   14  N   UNL     1      -1.237   2.227   0.912  1.00  0.00    -0.111 N 
HETATM   15  O   UNL     1      -1.886   3.002   0.193  1.00  0.00    -0.532 OA
HETATM   16  O   UNL     1      -1.159   2.285   2.147  1.00  0.00    -0.532 OA
ENDBRANCH   1  14
BRANCH   5  17
HETATM   17  N   UNL     1       2.220   0.153  -1.973  1.00  0.00    -0.113 N 
HETATM   18  O   UNL     1       2.147   0.906  -2.952  1.00  0.00    -0.532 OA
HETATM   19  O   UNL     1       3.150  -0.630  -1.729  1.00  0.00    -0.532 OA
ENDBRANCH   5  17
BRANCH   2  20
HETATM   20  N   UNL     1      -2.648  -0.163   0.839  1.00  0.00    -0.396 N 
HETATM   21  H   UNL     1      -2.872   0.491   1.591  1.00  0.00     0.156 HD
HETATM   22  H   UNL     1      -3.050  -1.083   1.027  1.00  0.00     0.156 HD
ENDBRANCH   2  20
BRANCH   4  23
HETATM   23  C   UNL     1      -1.475  -2.603  -0.353  1.00  0.00     0.419 C 
HETATM   24  F   UNL     1      -1.621  -3.121  -1.603  1.00  0.00    -0.166 F 
HETATM   25  F   UNL     1      -0.720  -3.504   0.336  1.00  0.00    -0.166 F 
HETATM   26  F   UNL     1      -2.710  -2.651   0.221  1.00  0.00    -0.166 F 
ENDBRANCH   4  23
TORSDOF 9
