REMARK  6 active torsions:
REMARK  status: ('A' for Active; 'I' for Inactive)
REMARK    1  A    between atoms: N_1  and  C_2 
REMARK    2  A    between atoms: N_1  and  C_17 
REMARK    3  A    between atoms: N_1  and  C_19 
REMARK    4  A    between atoms: C_2  and  C_4 
REMARK    5  A    between atoms: C_10  and  C_13 
REMARK    6  A    between atoms: C_19  and  C_20 
ROOT
HETATM    1  O   UNL     1       1.177  -1.688   1.976  1.00  0.00    -0.346 OA
HETATM    2  C   UNL     1       0.873  -0.381   2.460  1.00  0.00     0.177 C 
HETATM    3  C   UNL     1      -0.344  -0.633   3.329  1.00  0.00     0.205 C 
HETATM    4  O   UNL     1      -1.042  -1.710   2.699  1.00  0.00    -0.352 OA
HETATM    5  C   UNL     1      -0.066  -2.389   1.895  1.00  0.00     0.164 C 
HETATM    6  C   UNL     1       0.164  -3.809   2.414  1.00  0.00     0.069 C 
HETATM    7  C   UNL     1       1.060  -4.636   1.485  1.00  0.00     0.011 C 
HETATM    8  C   UNL     1       0.657  -4.642  -0.011  1.00  0.00    -0.007 C 
HETATM    9  C   UNL     1       0.364  -3.199  -0.470  1.00  0.00     0.011 C 
HETATM   10  C   UNL     1      -0.573  -2.432   0.456  1.00  0.00     0.069 C 
ENDROOT
BRANCH   2  11
HETATM   11  C   UNL     1       0.614   0.640   1.317  1.00  0.00     0.306 C 
BRANCH  11  12
HETATM   12  N   UNL     1       1.306   0.436   0.020  1.00  0.00     0.090 N 
BRANCH  12  13
HETATM   13  C   UNL     1       0.760   1.321  -1.038  1.00  0.00     0.268 C 
HETATM   14  C   UNL     1      -0.727   1.158  -1.349  1.00  0.00     0.037 C 
ENDBRANCH  12  13
BRANCH  12  15
HETATM   15  C   UNL     1       2.775   0.617   0.058  1.00  0.00     0.272 C 
BRANCH  15  16
HETATM   16  C   UNL     1       3.583  -0.417   0.849  1.00  0.00     0.026 C 
HETATM   17  C   UNL     1       5.074  -0.314   0.559  1.00  0.00     0.007 C 
ENDBRANCH  15  16
ENDBRANCH  12  15
ENDBRANCH  11  12
ENDBRANCH   2  11
BRANCH   8  18
HETATM   18  C   UNL     1      -0.399  -5.729  -0.461  1.00  0.00    -0.048 C 
HETATM   19  C   UNL     1      -1.813  -5.536   0.106  1.00  0.00     0.015 C 
HETATM   20  C   UNL     1      -0.523  -5.737  -2.005  1.00  0.00     0.015 C 
HETATM   21  C   UNL     1       0.082  -7.138  -0.047  1.00  0.00     0.015 C 
ENDBRANCH   8  18
TORSDOF 6
