REMARK  6 active torsions:
REMARK  status: ('A' for Active; 'I' for Inactive)
REMARK       I    between atoms: N_1  and  C_7 
REMARK    1  A    between atoms: C_2  and  C_10 
REMARK    2  A    between atoms: C_7  and  O_9 
REMARK    3  A    between atoms: O_9  and  C_13 
REMARK    4  A    between atoms: C_10  and  C_11 
REMARK    5  A    between atoms: C_11  and  O_12 
REMARK    6  A    between atoms: C_13  and  C_14 
ROOT
HETATM    1  N   UNL     1       0.539   1.202  -0.295  1.00  0.00    -0.323 N 
HETATM    2  C   UNL     1       1.411   0.142   0.243  1.00  0.00     0.091 C 
HETATM    3  C   UNL     1      -0.892   1.087  -0.033  1.00  0.00     0.128 C 
HETATM    4  C   UNL     1       0.869  -1.234  -0.191  1.00  0.00     0.026 C 
HETATM    5  C   UNL     1      -1.430  -0.262  -0.495  1.00  0.00     0.020 C 
HETATM    6  C   UNL     1      -0.621  -1.409   0.105  1.00  0.00     0.004 C 
HETATM    7  C   UNL     1       0.991   2.206  -1.137  1.00  0.00     0.363 C 
HETATM    8  O   UNL     1       0.252   2.958  -1.760  1.00  0.00    -0.238 OA
ENDROOT
BRANCH   2   9
HETATM    9  C   UNL     1       1.581   0.235   1.768  1.00  0.00     0.051 C 
BRANCH   9  10
HETATM   10  C   UNL     1       2.330   1.492   2.193  1.00  0.00     0.166 C 
BRANCH  10  11
HETATM   11  O   UNL     1       2.535   1.466   3.602  1.00  0.00    -0.401 OA
HETATM   12  H   UNL     1       1.662   1.522   4.026  1.00  0.00     0.209 HD
ENDBRANCH  10  11
ENDBRANCH   9  10
ENDBRANCH   2   9
BRANCH   7  13
HETATM   13  O   UNL     1       2.347   2.278  -1.173  1.00  0.00    -0.299 OA
BRANCH  13  14
HETATM   14  C   UNL     1       2.938   3.249  -2.060  1.00  0.00     0.129 C 
HETATM   15  C   UNL     1       4.226   2.616  -2.580  1.00  0.00     0.040 C 
BRANCH  14  16
HETATM   16  C   UNL     1       3.261   4.548  -1.308  1.00  0.00     0.028 C 
HETATM   17  C   UNL     1       2.028   5.340  -0.898  1.00  0.00     0.007 C 
ENDBRANCH  14  16
ENDBRANCH  13  14
ENDBRANCH   7  13
TORSDOF 6
