REMARK  5 active torsions:
REMARK  status: ('A' for Active; 'I' for Inactive)
REMARK    1  A    between atoms: C_4  and  C_6 
REMARK    2  A    between atoms: C_5  and  C_21 
REMARK       I    between atoms: C_6  and  N_8 
REMARK    3  A    between atoms: N_8  and  C_10 
REMARK    4  A    between atoms: C_10  and  C_11 
REMARK    5  A    between atoms: C_16  and  C_17 
ROOT
HETATM    1  C   UNL     1       2.177   1.604   0.260  1.00  0.00     0.271 C 
HETATM    2  O   UNL     1       2.148   2.716   0.788  1.00  0.00    -0.266 OA
HETATM    3  N   UNL     1       3.372   1.063  -0.163  1.00  0.00    -0.351 N 
HETATM    4  H   UNL     1       3.351   0.435  -0.953  1.00  0.00     0.163 HD
ENDROOT
BRANCH   3   5
HETATM    5  C   UNL     1       4.616   1.771   0.072  1.00  0.00     0.161 C 
BRANCH   5   6
HETATM    6  C   UNL     1       5.837   0.893  -0.060  1.00  0.00    -0.041 A 
HETATM    7  C   UNL     1       7.078   1.478  -0.332  1.00  0.00     0.009 A 
HETATM    8  C   UNL     1       8.226   0.690  -0.482  1.00  0.00     0.008 A 
HETATM    9  C   UNL     1       8.178  -0.712  -0.372  1.00  0.00    -0.051 A 
HETATM   10  C   UNL     1       6.944  -1.280  -0.029  1.00  0.00     0.008 A 
HETATM   11  C   UNL     1       5.799  -0.491   0.138  1.00  0.00     0.009 A 
BRANCH   9  12
HETATM   12  C   UNL     1       9.434  -1.558  -0.643  1.00  0.00    -0.024 C 
HETATM   13  C   UNL     1       9.957  -1.253  -2.064  1.00  0.00     0.019 C 
HETATM   14  C   UNL     1      10.531  -1.222   0.387  1.00  0.00     0.019 C 
HETATM   15  C   UNL     1       9.184  -3.082  -0.573  1.00  0.00     0.019 C 
ENDBRANCH   9  12
ENDBRANCH   5   6
ENDBRANCH   3   5
BRANCH   1  16
HETATM   16  C   UNL     1       0.994   0.799   0.055  1.00  0.00     0.143 A 
HETATM   17  N   UNL     1       0.900  -0.574  -0.007  1.00  0.00    -0.267 N 
HETATM   18  N   UNL     1      -0.358  -1.037  -0.128  1.00  0.00    -0.175 NA
HETATM   19  C   UNL     1       1.951  -1.557   0.131  1.00  0.00     0.180 C 
HETATM   20  C   UNL     1      -1.122   0.059  -0.076  1.00  0.00     0.078 A 
HETATM   21  C   UNL     1      -0.324   1.226  -0.001  1.00  0.00     0.094 A 
HETATM   22 CL   UNL     1      -0.930   2.815   0.040  1.00  0.00    -0.079 Cl
BRANCH  20  23
HETATM   23  C   UNL     1      -2.617  -0.030  -0.079  1.00  0.00     0.058 C 
HETATM   24  C   UNL     1      -3.179  -1.446  -0.034  1.00  0.00     0.011 C 
ENDBRANCH  20  23
ENDBRANCH   1  16
TORSDOF 5
