REMARK  4 active torsions:
REMARK  status: ('A' for Active; 'I' for Inactive)
REMARK    1  A    between atoms: C_1  and  C_2 
REMARK    2  A    between atoms: C_1  and  O_5 
REMARK    3  A    between atoms: C_2  and  O_6 
REMARK    4  A    between atoms: O_6  and  C_7 
ROOT
HETATM    1  C   UNL     1       0.653  -1.276   3.413  1.00  0.00     0.071 A 
HETATM    2  C   UNL     1       0.829  -2.598   3.820  1.00  0.00     0.060 A 
HETATM    3  C   UNL     1       0.024  -0.354   4.248  1.00  0.00     0.037 A 
HETATM    4  C   UNL     1       0.320  -3.010   5.048  1.00  0.00     0.036 A 
HETATM    5  C   UNL     1      -0.475  -0.772   5.484  1.00  0.00     0.004 A 
HETATM    6  C   UNL     1      -0.336  -2.104   5.880  1.00  0.00     0.024 A 
HETATM    7 CL   UNL     1       0.495  -4.650   5.537  1.00  0.00    -0.084 Cl
ENDROOT
BRANCH   1   8
HETATM    8  O   UNL     1       1.179  -0.928   2.201  1.00  0.00    -0.336 OA
BRANCH   8   9
HETATM    9  C   UNL     1       0.210  -0.500   1.232  1.00  0.00     0.222 C 
HETATM   10  C   UNL     1      -0.694  -1.665   0.822  1.00  0.00     0.051 C 
BRANCH   9  11
HETATM   11  C   UNL     1       0.972   0.018   0.002  1.00  0.00     0.170 C 
HETATM   12  O   UNL     1       2.188   0.024  -0.128  1.00  0.00    -0.648 OA
BRANCH  11  13
HETATM   13  O   UNL     1       0.167   0.526  -0.968  1.00  0.00    -0.774 OA
HETATM   14  H   UNL     1      -0.787   0.508  -0.772  1.00  0.00     0.167 HD
ENDBRANCH  11  13
ENDBRANCH   9  11
ENDBRANCH   8   9
ENDBRANCH   1   8
TORSDOF 4
