REMARK  7 active torsions:
REMARK  status: ('A' for Active; 'I' for Inactive)
REMARK    1  A    between atoms: C_2  and  C_8 
REMARK    2  A    between atoms: C_3  and  O_17 
REMARK    3  A    between atoms: C_5  and  C_21 
REMARK    4  A    between atoms: C_8  and  C_9 
REMARK    5  A    between atoms: N_11  and  O_12 
REMARK    6  A    between atoms: O_12  and  C_13 
REMARK    7  A    between atoms: C_13  and  C_14 
ROOT
HETATM    1  C   UNL     1       0.744  -1.184   0.434  1.00  0.00     0.164 C 
HETATM    2  C   UNL     1      -0.681  -1.528   0.084  1.00  0.00     0.065 C 
HETATM    3  C   UNL     1      -1.441  -0.429  -0.079  1.00  0.00     0.059 C 
HETATM    4  C   UNL     1      -0.961   1.004  -0.028  1.00  0.00     0.070 C 
HETATM    5  C   UNL     1       0.549   1.295  -0.083  1.00  0.00     0.003 C 
HETATM    6  C   UNL     1       1.366   0.012  -0.259  1.00  0.00     0.089 C 
HETATM    7  O   UNL     1       1.388  -1.839   1.244  1.00  0.00    -0.292 OA
ENDROOT
BRANCH   2   8
HETATM    8  C   UNL     1      -1.046  -2.995  -0.059  1.00  0.00     0.077 C 
HETATM    9  N   UNL     1      -0.040  -3.822  -0.253  1.00  0.00    -0.137 NA
BRANCH   8  10
HETATM   10  C   UNL     1      -2.471  -3.604   0.024  1.00  0.00     0.058 C 
HETATM   11  C   UNL     1      -3.780  -2.864   0.136  1.00  0.00     0.011 C 
ENDBRANCH   8  10
BRANCH   9  12
HETATM   12  O   UNL     1      -0.469  -5.159  -0.353  1.00  0.00    -0.253 OA
BRANCH  12  13
HETATM   13  C   UNL     1       0.622  -6.041  -0.084  1.00  0.00     0.232 C 
BRANCH  13  14
HETATM   14  C   UNL     1       0.077  -7.436  -0.030  1.00  0.00     0.013 C 
HETATM   15  C   UNL     1       0.841  -8.530  -0.095  1.00  0.00     0.082 C 
HETATM   16 CL   UNL     1       0.193 -10.115  -0.028  1.00  0.00    -0.097 Cl
ENDBRANCH  13  14
ENDBRANCH  12  13
ENDBRANCH   9  12
ENDBRANCH   2   8
BRANCH   3  17
HETATM   17  O   UNL     1      -2.774  -0.498  -0.400  1.00  0.00    -0.364 OA
HETATM   18  H   UNL     1      -3.224   0.316  -0.107  1.00  0.00     0.217 HD
ENDBRANCH   3  17
BRANCH   5  19
HETATM   19  C   UNL     1       0.890   2.351  -1.195  1.00  0.00    -0.006 C 
HETATM   20  C   UNL     1       2.385   2.723  -1.255  1.00  0.00     0.031 C 
HETATM   21  C   UNL     1       2.786   3.664  -0.125  1.00  0.00     0.168 C 
HETATM   22  O   UNL     1       1.984   4.843  -0.138  1.00  0.00    -0.391 OA
HETATM   23  C   UNL     1       0.598   4.564   0.032  1.00  0.00     0.168 C 
HETATM   24  C   UNL     1       0.091   3.669  -1.091  1.00  0.00     0.031 C 
ENDBRANCH   5  19
TORSDOF 7
