REMARK  4 active torsions:
REMARK  status: ('A' for Active; 'I' for Inactive)
REMARK    1  A    between atoms: C_3  and  C_17 
REMARK    2  A    between atoms: C_4  and  C_10 
REMARK    3  A    between atoms: C_8  and  C_13 
REMARK    4  A    between atoms: C_13  and  O_15 
ROOT
HETATM    1  C   UNL     1      -0.244   1.133   0.051  1.00  0.00     0.273 C 
HETATM    2  N   UNL     1       1.005   0.527   0.100  1.00  0.00    -0.192 NA
HETATM    3  C   UNL     1      -1.314   0.056  -0.248  1.00  0.00     0.114 C 
HETATM    4  C   UNL     1       0.832  -0.777   0.001  1.00  0.00     0.158 C 
HETATM    5  N   UNL     1      -0.490  -1.122  -0.048  1.00  0.00    -0.355 N 
HETATM    6  O   UNL     1      -0.467   2.330   0.169  1.00  0.00    -0.268 OA
HETATM    7  C   UNL     1      -1.699   0.166  -1.727  1.00  0.00     0.049 C 
HETATM    8  H   UNL     1      -0.820  -2.054  -0.303  1.00  0.00     0.162 HD
ENDROOT
BRANCH   4   9
HETATM    9  C   UNL     1       2.010  -1.727  -0.107  1.00  0.00     0.119 A 
HETATM   10  C   UNL     1       1.990  -3.130  -0.170  1.00  0.00     0.070 A 
HETATM   11  C   UNL     1       3.233  -3.769  -0.388  1.00  0.00     0.029 A 
HETATM   12  C   UNL     1       4.424  -3.045  -0.495  1.00  0.00    -0.043 A 
HETATM   13  C   UNL     1       4.338  -1.672  -0.402  1.00  0.00     0.124 A 
HETATM   14  C   UNL     1       5.742  -3.715  -0.729  1.00  0.00     0.049 C 
HETATM   15  N   UNL     1       3.179  -1.019  -0.214  1.00  0.00    -0.256 NA
BRANCH  10  16
HETATM   16  C   UNL     1       0.753  -3.968  -0.087  1.00  0.00     0.178 C 
HETATM   17  O   UNL     1      -0.383  -3.546  -0.226  1.00  0.00    -0.646 OA
BRANCH  16  18
HETATM   18  O   UNL     1       0.933  -5.293   0.116  1.00  0.00    -0.773 OA
HETATM   19  H   UNL     1       1.813  -5.636   0.339  1.00  0.00     0.167 HD
ENDBRANCH  16  18
ENDBRANCH  10  16
ENDBRANCH   4   9
BRANCH   3  20
HETATM   20  C   UNL     1      -2.524   0.078   0.708  1.00  0.00     0.015 C 
HETATM   21  C   UNL     1      -3.494  -1.084   0.447  1.00  0.00     0.012 C 
HETATM   22  C   UNL     1      -2.128   0.069   2.190  1.00  0.00     0.012 C 
ENDBRANCH   3  20
TORSDOF 4
