REMARK  6 active torsions:
REMARK  status: ('A' for Active; 'I' for Inactive)
REMARK    1  A    between atoms: C_5  and  C_7 
REMARK    2  A    between atoms: C_7  and  C_8 
REMARK    3  A    between atoms: C_8  and  C_11 
REMARK    4  A    between atoms: C_9  and  C_10 
REMARK    5  A    between atoms: C_10  and  C_12 
REMARK    6  A    between atoms: C_11  and  C_12 
ROOT
HETATM    1  C   UNL     1       2.256   0.614  -0.991  1.00  0.00     0.032 C 
ENDROOT
BRANCH   1   2
HETATM    2  C   UNL     1       1.112   0.332  -0.018  1.00  0.00     0.132 C 
HETATM    3  O   UNL     1       0.568  -0.969  -0.267  1.00  0.00    -0.316 OA
HETATM    4  C   UNL     1      -0.784  -0.938  -0.085  1.00  0.00     0.259 C 
HETATM    5  O   UNL     1      -1.512  -1.915  -0.163  1.00  0.00    -0.265 OA
HETATM    6  C   UNL     1      -1.225   0.449   0.268  1.00  0.00     0.113 C 
HETATM    7  C   UNL     1      -0.056   1.277  -0.205  1.00  0.00     0.042 C 
ENDBRANCH   1   2
BRANCH   1   8
HETATM    8  C   UNL     1       3.460  -0.299  -0.737  1.00  0.00     0.002 C 
BRANCH   8   9
HETATM    9  C   UNL     1       4.540  -0.096  -1.800  1.00  0.00     0.000 C 
BRANCH   9  10
HETATM   10  C   UNL     1       5.754  -0.989  -1.540  1.00  0.00     0.000 C 
BRANCH  10  11
HETATM   11  C   UNL     1       6.815  -0.810  -2.627  1.00  0.00    -0.000 C 
BRANCH  11  12
HETATM   12  C   UNL     1       8.033  -1.695  -2.368  1.00  0.00    -0.005 C 
HETATM   13  C   UNL     1       9.088  -1.519  -3.449  1.00  0.00     0.005 C 
ENDBRANCH  11  12
ENDBRANCH  10  11
ENDBRANCH   9  10
ENDBRANCH   8   9
ENDBRANCH   1   8
TORSDOF 6
