REMARK  0 active torsions:
REMARK  status: ('A' for Active; 'I' for Inactive)
ROOT
HETATM    1  N   UNL     1       1.032   0.679  -0.000  1.00  0.00    -0.288 N 
HETATM    2  S   UNL     1       1.238  -1.004   0.006  1.00  0.00     0.003 SA
HETATM    3  C   UNL     1      -1.182  -0.081   0.000  1.00  0.00     0.108 A 
HETATM    4  C   UNL     1      -0.476  -1.212   0.004  1.00  0.00     0.096 A 
HETATM    5  C   UNL     1      -0.285   1.091  -0.001  1.00  0.00     0.255 A 
HETATM    6  O   UNL     1      -0.704   2.238  -0.002  1.00  0.00    -0.267 OA
HETATM    7 CL   UNL     1      -1.188  -2.765   0.007  1.00  0.00    -0.075 Cl
HETATM    8  C   UNL     1       2.144   1.593   0.004  1.00  0.00     0.168 C 
ENDROOT
TORSDOF 0
