REMARK  3 active torsions:
REMARK  status: ('A' for Active; 'I' for Inactive)
REMARK    1  A    between atoms: C_1  and  N_3 
REMARK    2  A    between atoms: N_3  and  C_5 
REMARK    3  A    between atoms: C_5  and  C_10 
ROOT
HETATM    1  C   UNL     1       0.836   0.162  -0.423  1.00  0.00     0.110 C 
HETATM    2  C   UNL     1       0.071   1.435  -0.034  1.00  0.00     0.092 C 
HETATM    3  N   UNL     1       1.934   0.243  -1.119  1.00  0.00    -0.161 NA
HETATM    4  C   UNL     1       2.455   1.443  -1.397  1.00  0.00     0.207 C 
HETATM    5  N   UNL     1       2.914   2.491  -1.586  1.00  0.00    -0.170 NA
ENDROOT
BRANCH   1   6
HETATM    6  N   UNL     1       0.365  -1.062   0.066  1.00  0.00    -0.369 N 
HETATM    7  C   UNL     1      -1.072  -1.369   0.054  1.00  0.00     0.151 C 
BRANCH   6   8
HETATM    8  C   UNL     1       1.165  -2.309   0.114  1.00  0.00     0.163 C 
BRANCH   8   9
HETATM    9  C   UNL     1       2.669  -2.234   0.199  1.00  0.00    -0.023 A 
HETATM   10  C   UNL     1       3.421  -3.214  -0.455  1.00  0.00     0.127 A 
HETATM   11  N   UNL     1       4.770  -3.243  -0.515  1.00  0.00    -0.248 NA
HETATM   12  C   UNL     1       5.408  -2.232   0.105  1.00  0.00     0.125 A 
HETATM   13  C   UNL     1       4.777  -1.243   0.836  1.00  0.00     0.045 A 
HETATM   14 CL   UNL     1       7.112  -2.243  -0.087  1.00  0.00    -0.062 Cl
HETATM   15  C   UNL     1       3.384  -1.272   0.917  1.00  0.00     0.013 A 
ENDBRANCH   8   9
ENDBRANCH   6   8
ENDBRANCH   1   6
TORSDOF 3
