REMARK  11 active torsions:
REMARK  status: ('A' for Active; 'I' for Inactive)
REMARK    1  A    between atoms: C_1  and  O_11 
REMARK    2  A    between atoms: C_4  and  N_9 
REMARK    3  A    between atoms: O_11  and  C_12 
REMARK    4  A    between atoms: C_12  and  C_13 
REMARK    5  A    between atoms: C_13  and  O_14 
REMARK    6  A    between atoms: O_14  and  C_16 
REMARK    7  A    between atoms: C_16  and  C_17 
REMARK    8  A    between atoms: C_17  and  C_19 
REMARK    9  A    between atoms: C_19  and  C_20 
REMARK   10  A    between atoms: C_20  and  C_21 
REMARK   11  A    between atoms: C_21  and  C_22 
ROOT
HETATM    1  O   UNL     1      -1.790   2.148   2.019  1.00  0.00    -0.323 OA
ENDROOT
BRANCH   1   2
HETATM    2  C   UNL     1      -1.127   1.072   1.486  1.00  0.00     0.191 A 
HETATM    3  C   UNL     1      -1.703  -0.194   1.331  1.00  0.00     0.109 A 
HETATM    4  C   UNL     1      -0.935  -1.225   0.751  1.00  0.00     0.059 A 
HETATM    5 CL   UNL     1      -3.315  -0.531   1.867  1.00  0.00    -0.078 Cl
HETATM    6  C   UNL     1       0.363  -0.910   0.317  1.00  0.00     0.114 A 
HETATM    7  C   UNL     1       0.856   0.366   0.556  1.00  0.00     0.236 A 
HETATM    8 CL   UNL     1       1.345  -2.085  -0.484  1.00  0.00    -0.077 Cl
HETATM    9  N   UNL     1       0.145   1.357   1.135  1.00  0.00    -0.193 NA
HETATM   10  F   UNL     1       2.104   0.676   0.170  1.00  0.00    -0.182 F 
BRANCH   4  11
HETATM   11  N   UNL     1      -1.530  -2.462   0.401  1.00  0.00    -0.300 NA
HETATM   12  H   UNL     1      -2.318  -2.726   0.990  1.00  0.00     0.124 HD
HETATM   13  H   UNL     1      -0.862  -3.219   0.262  1.00  0.00     0.124 HD
ENDBRANCH   4  11
ENDBRANCH   1   2
BRANCH   1  14
HETATM   14  C   UNL     1      -2.834   2.622   1.178  1.00  0.00     0.288 C 
BRANCH  14  15
HETATM   15  C   UNL     1      -2.879   4.137   0.985  1.00  0.00     0.283 C 
HETATM   16  O   UNL     1      -3.570   4.869   1.690  1.00  0.00    -0.263 OA
BRANCH  15  17
HETATM   17  O   UNL     1      -2.265   4.609  -0.137  1.00  0.00    -0.315 OA
BRANCH  17  18
HETATM   18  C   UNL     1      -0.856   4.365  -0.328  1.00  0.00     0.128 C 
HETATM   19  C   UNL     1      -0.124   5.683  -0.090  1.00  0.00     0.040 C 
BRANCH  18  20
HETATM   20  C   UNL     1      -0.596   3.851  -1.756  1.00  0.00     0.032 C 
BRANCH  20  21
HETATM   21  C   UNL     1      -1.359   2.558  -2.033  1.00  0.00     0.002 C 
BRANCH  21  22
HETATM   22  C   UNL     1      -0.928   1.837  -3.307  1.00  0.00     0.000 C 
BRANCH  22  23
HETATM   23  C   UNL     1      -1.666   0.497  -3.400  1.00  0.00    -0.000 C 
BRANCH  23  24
HETATM   24  C   UNL     1      -1.186  -0.350  -4.573  1.00  0.00    -0.005 C 
HETATM   25  C   UNL     1      -1.893  -1.697  -4.593  1.00  0.00     0.005 C 
ENDBRANCH  23  24
ENDBRANCH  22  23
ENDBRANCH  21  22
ENDBRANCH  20  21
ENDBRANCH  18  20
ENDBRANCH  17  18
ENDBRANCH  15  17
ENDBRANCH  14  15
ENDBRANCH   1  14
TORSDOF 11
