REMARK  9 active torsions:
REMARK  status: ('A' for Active; 'I' for Inactive)
REMARK    1  A    between atoms: C_1  and  C_3 
REMARK    2  A    between atoms: C_1  and  O_4 
REMARK    3  A    between atoms: O_4  and  C_24 
REMARK    4  A    between atoms: C_8  and  N_11 
REMARK    5  A    between atoms: C_16  and  C_20 
REMARK    6  A    between atoms: C_24  and  C_26 
REMARK    7  A    between atoms: C_26  and  O_28 
REMARK    8  A    between atoms: O_28  and  C_31 
REMARK    9  A    between atoms: C_30  and  C_31 
ROOT
HETATM    1  C   UNL     1       0.292   1.163   0.645  1.00  0.00     0.063 A 
HETATM    2  C   UNL     1       0.905   2.417   0.582  1.00  0.00     0.050 A 
HETATM    3  C   UNL     1      -0.989   1.056   1.241  1.00  0.00     0.049 A 
HETATM    4  C   UNL     1       0.270   3.511   1.172  1.00  0.00     0.027 A 
HETATM    5  C   UNL     1      -1.658   2.148   1.828  1.00  0.00     0.048 A 
HETATM    6  C   UNL     1      -0.978   3.374   1.796  1.00  0.00     0.032 A 
HETATM    7 CL   UNL     1       2.385   2.751  -0.243  1.00  0.00    -0.083 Cl
ENDROOT
BRANCH   5   8
HETATM    8  N   UNL     1      -2.988   2.003   2.419  1.00  0.00    -0.230 N 
HETATM    9  C   UNL     1      -3.832   3.125   2.540  1.00  0.00     0.336 C 
HETATM   10  N   UNL     1      -5.072   2.920   3.172  1.00  0.00    -0.299 N 
HETATM   11  O   UNL     1      -3.559   4.245   2.103  1.00  0.00    -0.246 OA
HETATM   12  C   UNL     1      -5.566   1.653   3.471  1.00  0.00     0.127 C 
HETATM   13  C   UNL     1      -5.890   4.107   3.426  1.00  0.00     0.161 C 
HETATM   14  C   UNL     1      -4.767   0.595   3.308  1.00  0.00     0.109 C 
HETATM   15  C   UNL     1      -3.368   0.757   2.906  1.00  0.00     0.258 C 
HETATM   16  O   UNL     1      -2.645  -0.222   3.087  1.00  0.00    -0.267 OA
BRANCH  12  17
HETATM   17  C   UNL     1      -6.979   1.387   3.967  1.00  0.00     0.433 C 
HETATM   18  F   UNL     1      -7.682   0.663   3.057  1.00  0.00    -0.165 F 
HETATM   19  F   UNL     1      -6.964   0.656   5.113  1.00  0.00    -0.165 F 
HETATM   20  F   UNL     1      -7.717   2.492   4.230  1.00  0.00    -0.165 F 
ENDBRANCH  12  17
ENDBRANCH   5   8
BRANCH   1  21
HETATM   21  C   UNL     1       0.855  -0.100   0.096  1.00  0.00     0.296 C 
HETATM   22  O   UNL     1       0.142  -1.047  -0.197  1.00  0.00    -0.259 OA
BRANCH  21  23
HETATM   23  O   UNL     1       2.202  -0.070   0.051  1.00  0.00    -0.296 OA
BRANCH  23  24
HETATM   24  C   UNL     1       2.974  -1.141  -0.546  1.00  0.00     0.151 C 
HETATM   25  C   UNL     1       2.730  -2.488   0.144  1.00  0.00     0.057 C 
HETATM   26  C   UNL     1       4.436  -0.737  -0.277  1.00  0.00     0.057 C 
BRANCH  24  27
HETATM   27  C   UNL     1       2.790  -1.261  -2.080  1.00  0.00     0.294 C 
HETATM   28  O   UNL     1       3.680  -1.101  -2.909  1.00  0.00    -0.262 OA
BRANCH  27  29
HETATM   29  O   UNL     1       1.508  -1.561  -2.401  1.00  0.00    -0.315 OA
BRANCH  29  30
HETATM   30  C   UNL     1       1.208  -1.588  -3.797  1.00  0.00     0.205 C 
BRANCH  30  31
HETATM   31  C   UNL     1      -0.271  -1.794  -3.922  1.00  0.00    -0.011 C 
HETATM   32  C   UNL     1      -0.910  -1.977  -5.085  1.00  0.00     0.009 C 
ENDBRANCH  30  31
ENDBRANCH  29  30
ENDBRANCH  27  29
ENDBRANCH  24  27
ENDBRANCH  23  24
ENDBRANCH  21  23
ENDBRANCH   1  21
TORSDOF 9
