REMARK  3 active torsions:
REMARK  status: ('A' for Active; 'I' for Inactive)
REMARK    1  A    between atoms: C_1  and  C_2 
REMARK       I    between atoms: C_1  and  N_9 
REMARK    2  A    between atoms: N_9  and  C_13 
REMARK    3  A    between atoms: C_11  and  C_12 
ROOT
HETATM    1  C   UNL     1       3.219   1.839   1.091  1.00  0.00     0.001 A 
HETATM    2  C   UNL     1       2.981   0.441   1.022  1.00  0.00     0.046 A 
HETATM    3  C   UNL     1       4.111   2.271   2.099  1.00  0.00     0.014 A 
HETATM    4  C   UNL     1       3.689  -0.458   1.836  1.00  0.00     0.030 A 
HETATM    5  C   UNL     1       4.752   1.377   2.963  1.00  0.00     0.001 A 
HETATM    6  C   UNL     1       4.555   0.012   2.818  1.00  0.00     0.002 A 
ENDROOT
BRANCH   2   7
HETATM    7  N   UNL     1       2.055  -0.133   0.127  1.00  0.00    -0.322 N 
HETATM    8  C   UNL     1       0.681   0.016   0.181  1.00  0.00     0.259 C 
HETATM    9  O   UNL     1      -0.042  -0.457  -0.690  1.00  0.00    -0.267 OA
HETATM   10  H   UNL     1       2.326  -0.974  -0.369  1.00  0.00     0.169 HD
BRANCH   8  11
HETATM   11  C   UNL     1       0.070   0.507   1.424  1.00  0.00     0.072 A 
HETATM   12  C   UNL     1      -0.639   1.689   1.515  1.00  0.00     0.141 A 
HETATM   13  N   UNL     1      -1.227   2.119   2.661  1.00  0.00    -0.248 NA
HETATM   14 CL   UNL     1      -0.906   2.750   0.193  1.00  0.00    -0.061 Cl
HETATM   15  C   UNL     1      -1.143   1.306   3.737  1.00  0.00     0.118 A 
HETATM   16  C   UNL     1      -0.505   0.076   3.726  1.00  0.00     0.020 A 
HETATM   17  C   UNL     1       0.111  -0.329   2.548  1.00  0.00     0.022 A 
ENDBRANCH   8  11
ENDBRANCH   2   7
BRANCH   1  18
HETATM   18  C   UNL     1       2.700   2.839   0.106  1.00  0.00    -0.024 A 
HETATM   19  C   UNL     1       2.507   2.518  -1.253  1.00  0.00     0.014 A 
HETATM   20  C   UNL     1       2.039   3.457  -2.181  1.00  0.00     0.024 A 
HETATM   21  C   UNL     1       1.794   4.762  -1.778  1.00  0.00     0.034 A 
HETATM   22  C   UNL     1       2.004   5.130  -0.455  1.00  0.00     0.024 A 
HETATM   23 CL   UNL     1       1.239   5.924  -2.918  1.00  0.00    -0.084 Cl
HETATM   24  C   UNL     1       2.438   4.175   0.476  1.00  0.00     0.014 A 
ENDBRANCH   1  18
TORSDOF 3
