REMARK  9 active torsions:
REMARK  status: ('A' for Active; 'I' for Inactive)
REMARK    1  A    between atoms: N_1  and  C_2 
REMARK       I    between atoms: N_1  and  C_3 
REMARK    2  A    between atoms: N_1  and  C_7 
REMARK    3  A    between atoms: C_3  and  C_8 
REMARK    4  A    between atoms: C_5  and  C_15 
REMARK    5  A    between atoms: C_6  and  C_14 
REMARK    6  A    between atoms: C_7  and  O_10 
REMARK    7  A    between atoms: O_10  and  C_16 
REMARK    8  A    between atoms: C_16  and  C_17 
REMARK    9  A    between atoms: C_17  and  C_18 
ROOT
HETATM    1  N   UNL     1       1.080  -0.007  -0.174  1.00  0.00    -0.294 N 
HETATM    2  C   UNL     1       0.428  -0.134  -1.403  1.00  0.00     0.239 C 
HETATM    3  O   UNL     1       1.071  -0.155  -2.456  1.00  0.00    -0.272 OA
ENDROOT
BRANCH   1   4
HETATM    4  C   UNL     1       0.393   0.064   1.059  1.00  0.00     0.052 A 
HETATM    5  C   UNL     1       0.109  -1.130   1.778  1.00  0.00    -0.031 A 
HETATM    6  C   UNL     1      -0.511  -1.016   3.043  1.00  0.00     0.009 A 
HETATM    7  C   UNL     1      -0.838   0.213   3.591  1.00  0.00     0.001 A 
HETATM    8  C   UNL     1      -0.573   1.368   2.872  1.00  0.00     0.009 A 
HETATM    9  C   UNL     1       0.029   1.331   1.593  1.00  0.00    -0.031 A 
BRANCH   5  10
HETATM   10  C   UNL     1       0.355  -2.576   1.370  1.00  0.00     0.036 C 
HETATM   11  C   UNL     1       1.185  -2.977   0.165  1.00  0.00     0.010 C 
ENDBRANCH   5  10
BRANCH   9  12
HETATM   12  C   UNL     1       0.257   2.716   1.003  1.00  0.00     0.036 C 
HETATM   13  C   UNL     1       0.513   2.955  -0.475  1.00  0.00     0.010 C 
ENDBRANCH   9  12
ENDBRANCH   1   4
BRANCH   1  14
HETATM   14  C   UNL     1       2.538   0.080  -0.183  1.00  0.00     0.301 C 
BRANCH  14  15
HETATM   15  O   UNL     1       3.066   0.064   1.138  1.00  0.00    -0.372 OA
BRANCH  15  16
HETATM   16  C   UNL     1       4.489   0.065   1.142  1.00  0.00     0.170 C 
BRANCH  16  17
HETATM   17  C   UNL     1       4.955   0.106   2.594  1.00  0.00     0.026 C 
BRANCH  17  18
HETATM   18  C   UNL     1       6.477   0.106   2.699  1.00  0.00    -0.002 C 
HETATM   19  C   UNL     1       6.936   0.167   4.148  1.00  0.00     0.005 C 
ENDBRANCH  17  18
ENDBRANCH  16  17
ENDBRANCH  15  16
ENDBRANCH  14  15
ENDBRANCH   1  14
BRANCH   2  20
HETATM   20  C   UNL     1      -1.094  -0.272  -1.353  1.00  0.00     0.217 C 
HETATM   21 CL   UNL     1      -1.799  -0.266  -2.986  1.00  0.00    -0.121 Cl
ENDBRANCH   2  20
TORSDOF 9
