REMARK  3 active torsions:
REMARK  status: ('A' for Active; 'I' for Inactive)
REMARK    1  A    between atoms: N_3  and  C_13 
REMARK    2  A    between atoms: N_5  and  C_16 
REMARK    3  A    between atoms: N_8  and  C_9 
ROOT
HETATM    1  S   UNL     1       0.393   1.689  -0.423  1.00  0.00    -0.072 SA
HETATM    2  C   UNL     1       1.270   0.253   0.024  1.00  0.00     0.170 C 
HETATM    3  N   UNL     1       0.642  -0.928  -0.349  1.00  0.00    -0.274 N 
HETATM    4  C   UNL     1      -0.732  -1.167  -0.118  1.00  0.00     0.332 C 
HETATM    5  N   UNL     1      -1.561  -0.050  -0.224  1.00  0.00    -0.290 N 
HETATM    6  C   UNL     1      -1.094   1.157   0.400  1.00  0.00     0.216 C 
HETATM    7  O   UNL     1      -1.158  -2.303   0.109  1.00  0.00    -0.246 OA
HETATM    8  N   UNL     1       2.381   0.230   0.653  1.00  0.00    -0.257 NA
ENDROOT
BRANCH   5   9
HETATM    9  C   UNL     1      -2.712  -0.060  -1.089  1.00  0.00     0.039 A 
HETATM   10  C   UNL     1      -3.253  -1.260  -1.578  1.00  0.00     0.030 A 
HETATM   11  C   UNL     1      -4.313  -1.272  -2.492  1.00  0.00     0.002 A 
HETATM   12  C   UNL     1      -4.855  -0.079  -2.946  1.00  0.00     0.000 A 
HETATM   13  C   UNL     1      -4.343   1.125  -2.477  1.00  0.00     0.002 A 
HETATM   14  C   UNL     1      -3.287   1.134  -1.556  1.00  0.00     0.030 A 
ENDBRANCH   5   9
BRANCH   3  15
HETATM   15  C   UNL     1       1.389  -2.113  -0.844  1.00  0.00     0.088 C 
HETATM   16  C   UNL     1       0.799  -2.531  -2.214  1.00  0.00     0.032 C 
HETATM   17  C   UNL     1       2.900  -1.955  -1.050  1.00  0.00     0.032 C 
ENDBRANCH   3  15
BRANCH   8  18
HETATM   18  C   UNL     1       3.166   1.341   1.198  1.00  0.00     0.045 C 
HETATM   19  C   UNL     1       3.777   2.194   0.084  1.00  0.00     0.040 C 
HETATM   20  C   UNL     1       2.373   2.178   2.210  1.00  0.00     0.040 C 
HETATM   21  C   UNL     1       4.323   0.676   1.975  1.00  0.00     0.040 C 
ENDBRANCH   8  18
TORSDOF 3
