REMARK  4 active torsions:
REMARK  status: ('A' for Active; 'I' for Inactive)
REMARK    1  A    between atoms: C_4  and  C_9 
REMARK    2  A    between atoms: C_6  and  O_12 
REMARK    3  A    between atoms: O_12  and  C_13 
REMARK    4  A    between atoms: C_13  and  C_14 
ROOT
HETATM    1  C   UNL     1       1.283   0.822   0.563  1.00  0.00     0.041 C 
HETATM    2  C   UNL     1       1.303  -0.708   0.559  1.00  0.00     0.043 C 
HETATM    3  C   UNL     1      -0.005  -1.044  -0.170  1.00  0.00     0.084 C 
HETATM    4  C   UNL     1      -0.008   1.135  -0.218  1.00  0.00     0.067 C 
HETATM    5  O   UNL     1      -0.036   0.025  -1.151  1.00  0.00    -0.366 OA
HETATM    6  C   UNL     1      -1.207  -0.702   0.747  1.00  0.00     0.159 C 
HETATM    7  C   UNL     1      -1.223   0.828   0.671  1.00  0.00     0.073 C 
HETATM    8  C   UNL     1      -0.012  -2.406  -0.825  1.00  0.00     0.049 C 
ENDROOT
BRANCH   6   9
HETATM    9  O   UNL     1      -2.462  -1.165   0.245  1.00  0.00    -0.378 OA
BRANCH   9  10
HETATM   10  C   UNL     1      -3.034  -2.192   1.046  1.00  0.00     0.207 C 
BRANCH  10  11
HETATM   11  C   UNL     1      -4.413  -2.642   0.599  1.00  0.00    -0.029 A 
HETATM   12  C   UNL     1      -5.208  -3.272   1.582  1.00  0.00     0.010 A 
HETATM   13  C   UNL     1      -6.481  -3.762   1.292  1.00  0.00     0.001 A 
HETATM   14  C   UNL     1      -6.990  -3.635   0.008  1.00  0.00     0.001 A 
HETATM   15  C   UNL     1      -6.220  -3.026  -0.983  1.00  0.00     0.007 A 
HETATM   16  C   UNL     1      -4.925  -2.542  -0.712  1.00  0.00    -0.054 A 
HETATM   17  C   UNL     1      -4.180  -1.892  -1.846  1.00  0.00     0.049 C 
ENDBRANCH  10  11
ENDBRANCH   9  10
ENDBRANCH   6   9
BRANCH   4  18
HETATM   18  C   UNL     1      -0.005   2.502  -0.917  1.00  0.00     0.012 C 
HETATM   19  C   UNL     1      -0.205   3.652   0.073  1.00  0.00     0.012 C 
HETATM   20  C   UNL     1      -1.041   2.592  -2.043  1.00  0.00     0.012 C 
ENDBRANCH   4  18
TORSDOF 4
