REMARK  3 active torsions:
REMARK  status: ('A' for Active; 'I' for Inactive)
REMARK    1  A    between atoms: N_2  and  S_6 
REMARK    2  A    between atoms: C_5  and  C_15 
REMARK    3  A    between atoms: S_6  and  N_9 
ROOT
HETATM    1  N   UNL     1      -0.309  -0.860   0.111  1.00  0.00    -0.205 NA
HETATM    2  N   UNL     1       1.026   0.891   0.025  1.00  0.00    -0.193 N 
HETATM    3  C   UNL     1       0.945  -0.482   0.079  1.00  0.00     0.229 C 
HETATM    4  C   UNL     1      -1.057   0.274  -0.017  1.00  0.00     0.157 C 
HETATM    5  C   UNL     1      -0.273   1.436  -0.162  1.00  0.00     0.105 C 
HETATM    6 CL   UNL     1      -2.754   0.060   0.025  1.00  0.00    -0.060 Cl
HETATM    7  C   UNL     1       1.991  -1.459   0.081  1.00  0.00     0.140 C 
HETATM    8  N   UNL     1       2.791  -2.302   0.068  1.00  0.00    -0.188 NA
ENDROOT
BRANCH   2   9
HETATM    9  S   UNL     1       2.540   1.677   0.125  1.00  0.00     0.329 S 
HETATM   10  O   UNL     1       2.591   2.526  -1.045  1.00  0.00    -0.182 OA
HETATM   11  O   UNL     1       3.534   0.634   0.248  1.00  0.00    -0.182 OA
BRANCH   9  12
HETATM   12  N   UNL     1       2.750   2.617   1.534  1.00  0.00    -0.302 N 
HETATM   13  C   UNL     1       4.004   3.410   1.514  1.00  0.00     0.163 C 
HETATM   14  C   UNL     1       1.662   3.314   2.228  1.00  0.00     0.163 C 
ENDBRANCH   9  12
ENDBRANCH   2   9
BRANCH   5  15
HETATM   15  C   UNL     1      -0.720   2.857  -0.400  1.00  0.00    -0.005 A 
HETATM   16  C   UNL     1      -2.070   3.178  -0.643  1.00  0.00     0.014 A 
HETATM   17  C   UNL     1      -2.541   4.502  -0.762  1.00  0.00     0.007 A 
HETATM   18  C   UNL     1      -1.667   5.576  -0.667  1.00  0.00    -0.062 A 
HETATM   19  C   UNL     1      -0.325   5.295  -0.482  1.00  0.00     0.007 A 
HETATM   20  C   UNL     1      -2.127   6.998  -0.721  1.00  0.00     0.048 C 
HETATM   21  C   UNL     1       0.124   3.970  -0.383  1.00  0.00     0.014 A 
ENDBRANCH   5  15
TORSDOF 3
