REMARK  9 active torsions:
REMARK  status: ('A' for Active; 'I' for Inactive)
REMARK    1  A    between atoms: C_1  and  O_3 
REMARK    2  A    between atoms: C_1  and  C_4 
REMARK    3  A    between atoms: O_3  and  C_23 
REMARK    4  A    between atoms: C_4  and  O_6 
REMARK    5  A    between atoms: O_6  and  C_7 
REMARK    6  A    between atoms: C_12  and  O_13 
REMARK    7  A    between atoms: O_13  and  C_14 
REMARK    8  A    between atoms: C_23  and  C_24 
REMARK    9  A    between atoms: C_24  and  C_25 
ROOT
HETATM    1  C   UNL     1       8.790  -3.679  -1.532  1.00  0.00     0.114 C 
HETATM    2  C   UNL     1       8.445  -4.965  -1.113  1.00  0.00     0.151 C 
HETATM    3  C   UNL     1       9.891  -3.553  -2.393  1.00  0.00     0.042 C 
HETATM    4  C   UNL     1       9.054  -6.100  -1.649  1.00  0.00     0.068 C 
HETATM    5  C   UNL     1      10.564  -4.687  -2.878  1.00  0.00     0.025 C 
HETATM    6  C   UNL     1      10.126  -5.967  -2.529  1.00  0.00     0.047 C 
HETATM    7  C   UNL     1      10.798  -7.141  -3.010  1.00  0.00     0.099 C 
HETATM    8  N   UNL     1      11.331  -8.101  -3.378  1.00  0.00    -0.191 NA
HETATM    9  F   UNL     1       7.594  -5.172  -0.101  1.00  0.00    -0.203 F 
ENDROOT
BRANCH   1  10
HETATM   10  O   UNL     1       8.282  -2.499  -1.029  1.00  0.00    -0.308 OA
BRANCH  10  11
HETATM   11  C   UNL     1       6.938  -2.184  -1.085  1.00  0.00     0.076 A 
HETATM   12  C   UNL     1       6.631  -0.823  -1.261  1.00  0.00     0.040 A 
HETATM   13  C   UNL     1       5.302  -0.353  -1.201  1.00  0.00     0.039 A 
HETATM   14  C   UNL     1       4.269  -1.247  -0.941  1.00  0.00     0.070 A 
HETATM   15  C   UNL     1       4.564  -2.596  -0.789  1.00  0.00     0.039 A 
HETATM   16  C   UNL     1       5.880  -3.059  -0.860  1.00  0.00     0.040 A 
BRANCH  14  17
HETATM   17  O   UNL     1       2.942  -0.951  -0.865  1.00  0.00    -0.336 OA
BRANCH  17  18
HETATM   18  C   UNL     1       2.532   0.177  -0.086  1.00  0.00     0.224 C 
HETATM   19  C   UNL     1       3.066   0.130   1.350  1.00  0.00     0.051 C 
BRANCH  18  20
HETATM   20  C   UNL     1       0.995   0.137  -0.027  1.00  0.00     0.288 C 
HETATM   21  O   UNL     1       0.333   0.255   1.000  1.00  0.00    -0.262 OA
BRANCH  20  22
HETATM   22  O   UNL     1       0.443  -0.016  -1.270  1.00  0.00    -0.319 OA
BRANCH  22  23
HETATM   23  C   UNL     1      -0.992  -0.097  -1.256  1.00  0.00     0.178 C 
BRANCH  23  24
HETATM   24  C   UNL     1      -1.506  -0.209  -2.689  1.00  0.00     0.026 C 
BRANCH  24  25
HETATM   25  C   UNL     1      -3.034  -0.229  -2.729  1.00  0.00    -0.002 C 
HETATM   26  C   UNL     1      -3.564  -0.320  -4.151  1.00  0.00     0.005 C 
ENDBRANCH  24  25
ENDBRANCH  23  24
ENDBRANCH  22  23
ENDBRANCH  20  22
ENDBRANCH  18  20
ENDBRANCH  17  18
ENDBRANCH  14  17
ENDBRANCH  10  11
ENDBRANCH   1  10
TORSDOF 9
