REMARK  5 active torsions:
REMARK  status: ('A' for Active; 'I' for Inactive)
REMARK    1  A    between atoms: C_3  and  O_22 
REMARK    2  A    between atoms: C_8  and  S_10 
REMARK    3  A    between atoms: S_10  and  N_13 
REMARK    4  A    between atoms: N_13  and  C_14 
REMARK    5  A    between atoms: O_22  and  C_23 
ROOT
HETATM    1  N   UNL     1      -2.159  -0.681   0.137  1.00  0.00    -0.177 NA
HETATM    2  N   UNL     1       0.205  -0.583   0.130  1.00  0.00    -0.173 N 
HETATM    3  C   UNL     1      -1.005  -1.278   0.167  1.00  0.00     0.274 A 
HETATM    4  C   UNL     1      -0.999   1.443   0.007  1.00  0.00     0.116 A 
HETATM    5  C   UNL     1      -2.117   0.698   0.064  1.00  0.00     0.217 A 
HETATM    6  C   UNL     1       0.247   0.783   0.029  1.00  0.00     0.162 A 
HETATM    7  N   UNL     1       1.446  -1.115   0.161  1.00  0.00    -0.128 NA
HETATM    8  C   UNL     1       2.212  -0.007   0.035  1.00  0.00     0.283 A 
HETATM    9  N   UNL     1       1.494   1.182  -0.044  1.00  0.00    -0.197 NA
HETATM   10  F   UNL     1      -3.305   1.339   0.043  1.00  0.00    -0.184 F 
ENDROOT
BRANCH   8  11
HETATM   11  S   UNL     1       3.983  -0.061  -0.072  1.00  0.00     0.283 S 
HETATM   12  O   UNL     1       4.390  -1.012   0.942  1.00  0.00    -0.202 OA
HETATM   13  O   UNL     1       4.416   1.321  -0.011  1.00  0.00    -0.202 OA
BRANCH  11  14
HETATM   14  N   UNL     1       4.481  -0.640  -1.612  1.00  0.00    -0.175 NA
HETATM   15  H   UNL     1       5.468  -0.384  -1.697  1.00  0.00     0.146 HD
BRANCH  14  16
HETATM   16  C   UNL     1       4.268  -2.057  -1.828  1.00  0.00     0.066 A 
HETATM   17  C   UNL     1       5.227  -2.992  -1.403  1.00  0.00     0.057 A 
HETATM   18  C   UNL     1       4.984  -4.364  -1.511  1.00  0.00     0.026 A 
HETATM   19 CL   UNL     1       6.768  -2.484  -0.800  1.00  0.00    -0.082 Cl
HETATM   20  C   UNL     1       3.783  -4.819  -2.052  1.00  0.00     0.003 A 
HETATM   21  C   UNL     1       2.836  -3.902  -2.509  1.00  0.00     0.026 A 
HETATM   22  C   UNL     1       3.077  -2.529  -2.405  1.00  0.00     0.057 A 
HETATM   23 CL   UNL     1       1.911  -1.454  -3.099  1.00  0.00    -0.082 Cl
ENDBRANCH  14  16
ENDBRANCH  11  14
ENDBRANCH   8  11
BRANCH   3  24
HETATM   24  O   UNL     1      -0.809  -2.621   0.222  1.00  0.00    -0.319 OA
BRANCH  24  25
HETATM   25  C   UNL     1      -1.996  -3.425   0.214  1.00  0.00     0.174 C 
HETATM   26  C   UNL     1      -1.577  -4.881   0.174  1.00  0.00     0.034 C 
ENDBRANCH  24  25
ENDBRANCH   3  24
TORSDOF 5
