REMARK  8 active torsions:
REMARK  status: ('A' for Active; 'I' for Inactive)
REMARK    1  A    between atoms: C_1  and  C_3 
REMARK    2  A    between atoms: C_1  and  O_4 
REMARK    3  A    between atoms: C_5  and  S_10 
REMARK    4  A    between atoms: S_10  and  N_13 
REMARK       I    between atoms: N_13  and  C_14 
REMARK       I    between atoms: C_14  and  N_16 
REMARK    5  A    between atoms: N_16  and  C_18 
REMARK    6  A    between atoms: C_20  and  O_23 
REMARK    7  A    between atoms: C_22  and  N_26 
REMARK    8  A    between atoms: O_23  and  C_24 
ROOT
HETATM    1  N   UNL     1       2.043   1.628   1.896  1.00  0.00    -0.231 N 
HETATM    2  C   UNL     1       2.979   1.951   2.892  1.00  0.00     0.348 C 
HETATM    3  O   UNL     1       3.454   3.073   2.960  1.00  0.00    -0.245 OA
HETATM    4  N   UNL     1       3.317   0.895   3.699  1.00  0.00    -0.136 N 
HETATM    5  H   UNL     1       1.358   0.903   2.112  1.00  0.00     0.183 HD
HETATM    6  H   UNL     1       3.059  -0.043   3.454  1.00  0.00     0.189 HD
ENDROOT
BRANCH   1   7
HETATM    7  S   UNL     1       1.548   2.818   0.825  1.00  0.00     0.267 S 
HETATM    8  O   UNL     1       2.715   3.358   0.163  1.00  0.00    -0.200 OA
HETATM    9  O   UNL     1       0.603   3.651   1.539  1.00  0.00    -0.200 OA
BRANCH   7  10
HETATM   10  C   UNL     1       0.601   2.107  -0.501  1.00  0.00     0.096 A 
HETATM   11  C   UNL     1       0.448   0.746  -0.747  1.00  0.00     0.062 A 
HETATM   12  C   UNL     1      -0.304   0.306  -1.848  1.00  0.00     0.019 A 
HETATM   13  C   UNL     1      -0.881   1.234  -2.719  1.00  0.00     0.001 A 
HETATM   14  C   UNL     1      -0.708   2.598  -2.495  1.00  0.00     0.002 A 
HETATM   15  C   UNL     1       0.026   3.033  -1.391  1.00  0.00     0.026 A 
BRANCH  11  16
HETATM   16  C   UNL     1       1.047  -0.259   0.123  1.00  0.00     0.294 C 
HETATM   17  O   UNL     1       0.608  -0.517   1.232  1.00  0.00    -0.259 OA
BRANCH  16  18
HETATM   18  O   UNL     1       2.220  -0.643  -0.420  1.00  0.00    -0.322 OA
HETATM   19  C   UNL     1       3.078  -1.407   0.432  1.00  0.00     0.213 C 
ENDBRANCH  16  18
ENDBRANCH  11  16
ENDBRANCH   7  10
ENDBRANCH   1   7
BRANCH   4  20
HETATM   20  C   UNL     1       4.171   1.031   4.798  1.00  0.00     0.750 A 
HETATM   21  N   UNL     1       4.399   2.244   5.270  1.00  0.00     0.130 NA
HETATM   22  C   UNL     1       5.200   2.360   6.310  1.00  0.00     0.741 A 
HETATM   23  N   UNL     1       5.792   1.329   6.876  1.00  0.00    -0.018 NA
HETATM   24  C   UNL     1       5.483   0.146   6.360  1.00  0.00     0.302 A 
HETATM   25  N   UNL     1       4.665  -0.084   5.329  1.00  0.00    -0.017 NA
BRANCH  22  26
HETATM   26  N   UNL     1       5.396   3.585   6.897  1.00  0.00    -0.226 N 
HETATM   27  C   UNL     1       5.010   4.798   6.219  1.00  0.00     0.165 C 
HETATM   28  H   UNL     1       6.200   3.597   7.507  1.00  0.00     0.177 HD
ENDBRANCH  22  26
BRANCH  24  29
HETATM   29  O   UNL     1       6.095  -0.891   7.026  1.00  0.00    -0.319 OA
BRANCH  29  30
HETATM   30  C   UNL     1       5.855  -2.192   6.511  1.00  0.00     0.174 C 
HETATM   31  C   UNL     1       6.631  -3.161   7.391  1.00  0.00     0.034 C 
ENDBRANCH  29  30
ENDBRANCH  24  29
ENDBRANCH   4  20
TORSDOF 8
