REMARK  4 active torsions:
REMARK  status: ('A' for Active; 'I' for Inactive)
REMARK    1  A    between atoms: S_1  and  O_7 
REMARK    2  A    between atoms: C_5  and  O_13 
REMARK    3  A    between atoms: O_7  and  C_11 
REMARK    4  A    between atoms: O_13  and  C_18 
ROOT
HETATM    1  C   UNL     1       0.103   6.143   0.222  1.00  0.00     0.033 C 
HETATM    2  C   UNL     1       0.559   4.793   0.662  1.00  0.00    -0.009 A 
HETATM    3  O   UNL     1       0.813   6.044   2.580  1.00  0.00    -0.319 OA
HETATM    4  C   UNL     1       0.404   6.963   1.523  1.00  0.00     0.278 C 
HETATM    5  C   UNL     1       0.926   4.819   1.989  1.00  0.00     0.079 A 
HETATM    6  C   UNL     1       0.573   3.604  -0.052  1.00  0.00     0.049 A 
HETATM    7  C   UNL     1       0.949   2.420   0.589  1.00  0.00     0.090 A 
HETATM    8  C   UNL     1       1.331   3.671   2.642  1.00  0.00     0.040 A 
HETATM    9  C   UNL     1       1.343   2.459   1.932  1.00  0.00     0.041 A 
HETATM   10  C   UNL     1       0.948   6.651  -0.952  1.00  0.00     0.025 C 
HETATM   11  C   UNL     1      -1.383   6.067  -0.164  1.00  0.00     0.025 C 
ENDROOT
BRANCH   7  12
HETATM   12  O   UNL     1       0.864   1.322  -0.225  1.00  0.00    -0.233 OA
BRANCH  12  13
HETATM   13  S   UNL     1       1.161  -0.220   0.193  1.00  0.00     0.266 S 
HETATM   14  O   UNL     1       0.660  -1.071  -0.869  1.00  0.00    -0.199 OA
HETATM   15  O   UNL     1       0.808  -0.473   1.575  1.00  0.00    -0.199 OA
HETATM   16  C   UNL     1       2.931  -0.172   0.043  1.00  0.00     0.194 C 
ENDBRANCH  12  13
ENDBRANCH   7  12
BRANCH   4  17
HETATM   17  O   UNL     1      -0.719   7.724   1.976  1.00  0.00    -0.360 OA
BRANCH  17  18
HETATM   18  C   UNL     1      -0.889   8.953   1.276  1.00  0.00     0.166 C 
HETATM   19  C   UNL     1      -2.293   9.461   1.544  1.00  0.00     0.033 C 
ENDBRANCH  17  18
ENDBRANCH   4  17
TORSDOF 4
