REMARK  5 active torsions:
REMARK  status: ('A' for Active; 'I' for Inactive)
REMARK    1  A    between atoms: C_2  and  C_6 
REMARK    2  A    between atoms: C_4  and  C_14 
REMARK    3  A    between atoms: C_15  and  O_24 
REMARK    4  A    between atoms: C_19  and  C_20 
REMARK    5  A    between atoms: O_24  and  C_25 
ROOT
HETATM    1  N   UNL     1       1.012  -0.757   0.487  1.00  0.00    -0.254 NA
HETATM    2  C   UNL     1       0.950   0.532   0.541  1.00  0.00     0.177 A 
HETATM    3  O   UNL     1      -0.268   1.121   0.585  1.00  0.00    -0.331 OA
HETATM    4  C   UNL     1      -0.391  -1.203   0.407  1.00  0.00     0.170 A 
HETATM    5  C   UNL     1      -1.221   0.068   0.416  1.00  0.00     0.210 A 
ENDROOT
BRANCH   4   6
HETATM    6  C   UNL     1      -0.553  -2.220  -0.708  1.00  0.00     0.002 A 
HETATM    7  C   UNL     1      -0.581  -1.999  -2.095  1.00  0.00     0.077 A 
HETATM    8  C   UNL     1      -0.568  -3.097  -2.990  1.00  0.00     0.045 A 
HETATM    9  C   UNL     1      -0.518  -4.433  -2.551  1.00  0.00    -0.048 A 
HETATM   10  C   UNL     1      -0.574  -4.638  -1.169  1.00  0.00     0.009 A 
HETATM   11  C   UNL     1      -0.574  -3.564  -0.278  1.00  0.00     0.013 A 
BRANCH   7  12
HETATM   12  O   UNL     1      -0.755  -0.793  -2.729  1.00  0.00    -0.351 OA
BRANCH  12  13
HETATM   13  C   UNL     1       0.268   0.178  -2.537  1.00  0.00     0.171 C 
HETATM   14  C   UNL     1       0.494   0.972  -3.812  1.00  0.00     0.034 C 
ENDBRANCH  12  13
ENDBRANCH   7  12
BRANCH   9  15
HETATM   15  C   UNL     1      -0.388  -5.642  -3.494  1.00  0.00    -0.024 C 
HETATM   16  C   UNL     1       0.832  -6.500  -3.073  1.00  0.00     0.019 C 
HETATM   17  C   UNL     1      -1.659  -6.513  -3.412  1.00  0.00     0.019 C 
HETATM   18  C   UNL     1      -0.174  -5.261  -4.974  1.00  0.00     0.019 C 
ENDBRANCH   9  15
ENDBRANCH   4   6
BRANCH   2  19
HETATM   19  C   UNL     1       2.109   1.435   0.451  1.00  0.00     0.093 A 
HETATM   20  C   UNL     1       1.967   2.819   0.332  1.00  0.00     0.134 A 
HETATM   21  C   UNL     1       3.075   3.643   0.111  1.00  0.00     0.043 A 
HETATM   22  F   UNL     1       0.765   3.410   0.389  1.00  0.00    -0.205 F 
HETATM   23  C   UNL     1       4.350   3.092   0.002  1.00  0.00     0.006 A 
HETATM   24  C   UNL     1       4.510   1.716   0.129  1.00  0.00     0.043 A 
HETATM   25  C   UNL     1       3.398   0.900   0.352  1.00  0.00     0.134 A 
HETATM   26  F   UNL     1       3.623  -0.419   0.444  1.00  0.00    -0.205 F 
ENDBRANCH   2  19
TORSDOF 5
