REMARK  5 active torsions:
REMARK  status: ('A' for Active; 'I' for Inactive)
REMARK    1  A    between atoms: N_1  and  N_22 
REMARK    2  A    between atoms: C_5  and  C_9 
REMARK    3  A    between atoms: C_14  and  O_15 
REMARK    4  A    between atoms: O_15  and  C_16 
REMARK    5  A    between atoms: N_22  and  C_23 
ROOT
HETATM    1  N   UNL     1      -0.552  -1.105  -0.185  1.00  0.00    -0.181 N 
HETATM    2  C   UNL     1       0.758  -0.972   0.161  1.00  0.00     0.386 C 
HETATM    3  C   UNL     1      -1.150   0.120  -0.164  1.00  0.00     0.283 C 
HETATM    4  O   UNL     1       1.143   0.329  -0.013  1.00  0.00    -0.277 OA
HETATM    5  C   UNL     1      -0.021   1.122  -0.329  1.00  0.00     0.178 C 
HETATM    6  O   UNL     1       1.528  -1.820   0.587  1.00  0.00    -0.236 OA
HETATM    7  O   UNL     1      -2.339   0.362  -0.006  1.00  0.00    -0.268 OA
HETATM    8  C   UNL     1      -0.082   2.226   0.726  1.00  0.00     0.063 C 
ENDROOT
BRANCH   5   9
HETATM    9  C   UNL     1       0.030   1.615  -1.773  1.00  0.00    -0.014 A 
HETATM   10  C   UNL     1       0.766   0.916  -2.748  1.00  0.00     0.013 A 
HETATM   11  C   UNL     1       0.766   1.329  -4.082  1.00  0.00     0.038 A 
HETATM   12  C   UNL     1       0.043   2.453  -4.469  1.00  0.00     0.076 A 
HETATM   13  C   UNL     1      -0.745   3.119  -3.533  1.00  0.00     0.038 A 
HETATM   14  C   UNL     1      -0.737   2.715  -2.193  1.00  0.00     0.013 A 
BRANCH  12  15
HETATM   15  O   UNL     1       0.093   2.765  -5.805  1.00  0.00    -0.311 OA
BRANCH  15  16
HETATM   16  C   UNL     1       0.146   4.075  -6.222  1.00  0.00     0.076 A 
HETATM   17  C   UNL     1      -0.220   4.281  -7.556  1.00  0.00     0.037 A 
HETATM   18  C   UNL     1      -0.203   5.564  -8.104  1.00  0.00     0.003 A 
HETATM   19  C   UNL     1       0.178   6.649  -7.319  1.00  0.00     0.000 A 
HETATM   20  C   UNL     1       0.575   6.447  -5.998  1.00  0.00     0.003 A 
HETATM   21  C   UNL     1       0.584   5.158  -5.457  1.00  0.00     0.037 A 
ENDBRANCH  15  16
ENDBRANCH  12  15
ENDBRANCH   5   9
BRANCH   1  22
HETATM   22  N   UNL     1      -1.295  -2.262   0.087  1.00  0.00    -0.192 NA
HETATM   23  H   UNL     1      -2.302  -2.072   0.085  1.00  0.00     0.153 HD
BRANCH  22  24
HETATM   24  C   UNL     1      -1.007  -3.390  -0.728  1.00  0.00     0.028 A 
HETATM   25  C   UNL     1      -0.160  -3.368  -1.845  1.00  0.00     0.025 A 
HETATM   26  C   UNL     1       0.155  -4.545  -2.532  1.00  0.00     0.002 A 
HETATM   27  C   UNL     1      -0.382  -5.760  -2.119  1.00  0.00     0.000 A 
HETATM   28  C   UNL     1      -1.254  -5.796  -1.034  1.00  0.00     0.002 A 
HETATM   29  C   UNL     1      -1.569  -4.618  -0.351  1.00  0.00     0.025 A 
ENDBRANCH  22  24
ENDBRANCH   1  22
TORSDOF 5
