REMARK  4 active torsions:
REMARK  status: ('A' for Active; 'I' for Inactive)
REMARK    1  A    between atoms: N_1  and  N_7 
REMARK    2  A    between atoms: C_3  and  S_15 
REMARK    3  A    between atoms: C_5  and  C_17 
REMARK    4  A    between atoms: N_7  and  C_8 
ROOT
HETATM    1  N   UNL     1      -0.552   1.046   0.393  1.00  0.00    -0.215 N 
HETATM    2  N   UNL     1       1.097  -0.523   0.265  1.00  0.00    -0.240 NA
HETATM    3  C   UNL     1       0.770   0.716   0.485  1.00  0.00     0.183 C 
HETATM    4  C   UNL     1      -1.143  -0.026  -0.226  1.00  0.00     0.275 C 
HETATM    5  C   UNL     1      -0.234  -1.204   0.132  1.00  0.00     0.162 C 
HETATM    6  O   UNL     1      -2.116  -0.071  -0.971  1.00  0.00    -0.268 OA
HETATM    7  C   UNL     1      -0.227  -2.203  -1.028  1.00  0.00     0.057 C 
ENDROOT
BRANCH   1   8
HETATM    8  N   UNL     1      -0.972   2.383   0.245  1.00  0.00    -0.194 NA
HETATM    9  H   UNL     1      -0.352   2.998   0.775  1.00  0.00     0.153 HD
BRANCH   8  10
HETATM   10  C   UNL     1      -2.300   2.781   0.558  1.00  0.00     0.028 A 
HETATM   11  C   UNL     1      -3.385   1.936   0.796  1.00  0.00     0.025 A 
HETATM   12  C   UNL     1      -4.679   2.440   0.967  1.00  0.00     0.002 A 
HETATM   13  C   UNL     1      -4.914   3.808   0.901  1.00  0.00     0.000 A 
HETATM   14  C   UNL     1      -3.853   4.673   0.668  1.00  0.00     0.002 A 
HETATM   15  C   UNL     1      -2.564   4.163   0.493  1.00  0.00     0.025 A 
ENDBRANCH   8  10
ENDBRANCH   1   8
BRANCH   3  16
HETATM   16  S   UNL     1       1.983   1.869   0.960  1.00  0.00    -0.095 SA
HETATM   17  C   UNL     1       1.900   3.142  -0.312  1.00  0.00     0.099 C 
ENDBRANCH   3  16
BRANCH   5  18
HETATM   18  C   UNL     1      -0.558  -1.881   1.477  1.00  0.00    -0.019 A 
HETATM   19  C   UNL     1       0.223  -2.970   1.909  1.00  0.00     0.010 A 
HETATM   20  C   UNL     1       0.026  -3.554   3.163  1.00  0.00     0.001 A 
HETATM   21  C   UNL     1      -0.945  -3.050   4.023  1.00  0.00     0.000 A 
HETATM   22  C   UNL     1      -1.722  -1.968   3.624  1.00  0.00     0.001 A 
HETATM   23  C   UNL     1      -1.533  -1.393   2.364  1.00  0.00     0.010 A 
ENDBRANCH   5  18
TORSDOF 4
