REMARK  5 active torsions:
REMARK  status: ('A' for Active; 'I' for Inactive)
REMARK    1  A    between atoms: N_1  and  C_2 
REMARK    2  A    between atoms: C_3  and  N_8 
REMARK    3  A    between atoms: C_7  and  S_14 
REMARK    4  A    between atoms: S_14  and  C_17 
REMARK    5  A    between atoms: C_16  and  C_20 
ROOT
HETATM    1  N   UNL     1       0.272  -1.257   0.095  1.00  0.00    -0.212 N 
HETATM    2  C   UNL     1       1.493  -0.527   0.031  1.00  0.00     0.146 A 
HETATM    3  N   UNL     1      -0.748  -0.342   0.168  1.00  0.00    -0.153 NA
HETATM    4  C   UNL     1       1.169   0.814  -0.005  1.00  0.00     0.126 A 
HETATM    5  C   UNL     1      -0.214   0.871   0.060  1.00  0.00     0.180 A 
HETATM    6  C   UNL     1      -1.068   2.021  -0.022  1.00  0.00     0.123 C 
HETATM    7  N   UNL     1      -1.686   2.999  -0.110  1.00  0.00    -0.190 NA
ENDROOT
BRANCH   4   8
HETATM    8  S   UNL     1       2.262   2.144  -0.206  1.00  0.00     0.164 S 
HETATM    9  O   UNL     1       3.625   1.561  -0.472  1.00  0.00    -0.244 OA
BRANCH   8  10
HETATM   10  C   UNL     1       2.195   2.807   1.482  1.00  0.00     0.477 C 
HETATM   11  F   UNL     1       2.274   1.845   2.435  1.00  0.00    -0.158 F 
HETATM   12  F   UNL     1       3.204   3.684   1.716  1.00  0.00    -0.158 F 
HETATM   13  F   UNL     1       1.036   3.480   1.698  1.00  0.00    -0.158 F 
ENDBRANCH   8  10
ENDBRANCH   4   8
BRANCH   1  14
HETATM   14  C   UNL     1      -0.073  -2.684   0.078  1.00  0.00     0.104 A 
HETATM   15  C   UNL     1      -1.448  -3.096   0.015  1.00  0.00     0.065 A 
HETATM   16  C   UNL     1      -1.831  -4.461  -0.017  1.00  0.00     0.042 A 
HETATM   17 CL   UNL     1      -2.858  -2.071  -0.057  1.00  0.00    -0.082 Cl
HETATM   18  C   UNL     1      -0.893  -5.480  -0.004  1.00  0.00     0.051 A 
HETATM   19  C   UNL     1       0.442  -5.105   0.052  1.00  0.00     0.042 A 
HETATM   20  C   UNL     1       0.857  -3.752   0.109  1.00  0.00     0.065 A 
HETATM   21 CL   UNL     1       2.572  -3.705   0.282  1.00  0.00    -0.082 Cl
BRANCH  18  22
HETATM   22  C   UNL     1      -1.263  -6.941  -0.032  1.00  0.00     0.417 C 
HETATM   23  F   UNL     1      -0.751  -7.578  -1.120  1.00  0.00    -0.166 F 
HETATM   24  F   UNL     1      -0.786  -7.611   1.052  1.00  0.00    -0.166 F 
HETATM   25  F   UNL     1      -2.603  -7.167  -0.057  1.00  0.00    -0.166 F 
ENDBRANCH  18  22
ENDBRANCH   1  14
BRANCH   2  26
HETATM   26  N   UNL     1       2.753  -0.998  -0.006  1.00  0.00    -0.383 N 
HETATM   27  H   UNL     1       3.001  -1.963  -0.195  1.00  0.00     0.157 HD
HETATM   28  H   UNL     1       3.536  -0.355  -0.180  1.00  0.00     0.157 HD
ENDBRANCH   2  26
TORSDOF 5
