REMARK  7 active torsions:
REMARK  status: ('A' for Active; 'I' for Inactive)
REMARK    1  A    between atoms: N_1  and  C_11 
REMARK    2  A    between atoms: C_6  and  C_15 
REMARK    3  A    between atoms: C_7  and  O_19 
REMARK    4  A    between atoms: O_19  and  C_20 
REMARK    5  A    between atoms: C_20  and  C_21 
REMARK    6  A    between atoms: C_21  and  O_22 
REMARK    7  A    between atoms: O_22  and  C_23 
ROOT
HETATM    1  C   UNL     1      -1.396   4.850   0.233  1.00  0.00     0.093 A 
HETATM    2  C   UNL     1      -2.755   4.816  -0.101  1.00  0.00     0.070 A 
HETATM    3  C   UNL     1      -0.688   3.644   0.312  1.00  0.00     0.073 A 
HETATM    4  C   UNL     1      -3.383   3.601  -0.356  1.00  0.00     0.071 A 
HETATM    5  C   UNL     1      -1.279   2.404   0.005  1.00  0.00     0.103 A 
HETATM    6  C   UNL     1      -2.652   2.414  -0.301  1.00  0.00     0.147 A 
HETATM    7 CL   UNL     1      -3.695   6.259  -0.229  1.00  0.00    -0.081 Cl
HETATM    8  F   UNL     1      -3.319   1.290  -0.603  1.00  0.00    -0.204 F 
ENDROOT
BRANCH   5   9
HETATM    9  N   UNL     1      -0.498   1.192   0.008  1.00  0.00    -0.195 N 
HETATM   10  N   UNL     1      -1.243   0.039   0.051  1.00  0.00    -0.176 NA
HETATM   11  C   UNL     1      -0.620  -1.090   0.043  1.00  0.00     0.156 A 
HETATM   12  C   UNL     1       0.832  -1.267   0.022  1.00  0.00     0.078 A 
HETATM   13  C   UNL     1       1.571  -0.148  -0.031  1.00  0.00     0.025 A 
HETATM   14  C   UNL     1       0.900   1.185  -0.110  1.00  0.00     0.275 A 
HETATM   15  C   UNL     1       3.074  -0.161  -0.028  1.00  0.00     0.055 C 
HETATM   16  O   UNL     1       1.610   2.174  -0.299  1.00  0.00    -0.266 OA
BRANCH  12  17
HETATM   17  C   UNL     1       1.349  -2.656   0.050  1.00  0.00     0.419 C 
HETATM   18  F   UNL     1       2.145  -2.913  -1.018  1.00  0.00    -0.166 F 
HETATM   19  F   UNL     1       2.092  -2.890   1.160  1.00  0.00    -0.166 F 
HETATM   20  F   UNL     1       0.369  -3.594   0.035  1.00  0.00    -0.166 F 
ENDBRANCH  12  17
ENDBRANCH   5   9
BRANCH   1  21
HETATM   21  O   UNL     1      -0.830   6.071   0.503  1.00  0.00    -0.340 OA
BRANCH  21  22
HETATM   22  C   UNL     1       0.575   6.183   0.329  1.00  0.00     0.286 C 
BRANCH  22  23
HETATM   23  C   UNL     1       1.216   7.574   0.302  1.00  0.00     0.283 C 
HETATM   24  O   UNL     1       2.419   7.697   0.542  1.00  0.00    -0.263 OA
BRANCH  23  25
HETATM   25  O   UNL     1       0.495   8.663  -0.046  1.00  0.00    -0.320 OA
BRANCH  25  26
HETATM   26  C   UNL     1      -0.908   8.624  -0.341  1.00  0.00     0.174 C 
HETATM   27  C   UNL     1      -1.354  10.018  -0.733  1.00  0.00     0.034 C 
ENDBRANCH  25  26
ENDBRANCH  23  25
ENDBRANCH  22  23
ENDBRANCH  21  22
ENDBRANCH   1  21
TORSDOF 7
