REMARK  10 active torsions:
REMARK  status: ('A' for Active; 'I' for Inactive)
REMARK    1  A    between atoms: C_1  and  C_2 
REMARK    2  A    between atoms: C_1  and  O_5 
REMARK    3  A    between atoms: C_2  and  O_6 
REMARK    4  A    between atoms: O_5  and  C_24 
REMARK    5  A    between atoms: O_6  and  C_7 
REMARK    6  A    between atoms: C_12  and  O_13 
REMARK    7  A    between atoms: O_13  and  C_16 
REMARK    8  A    between atoms: C_18  and  C_20 
REMARK    9  A    between atoms: C_24  and  C_25 
REMARK   10  A    between atoms: C_25  and  C_26 
ROOT
HETATM    1  C   UNL     1       0.749  -2.817   2.452  1.00  0.00     0.070 A 
HETATM    2  C   UNL     1       1.433  -4.028   2.550  1.00  0.00     0.039 A 
HETATM    3  C   UNL     1      -0.368  -2.588   3.250  1.00  0.00     0.039 A 
HETATM    4  C   UNL     1       0.989  -5.015   3.434  1.00  0.00     0.040 A 
HETATM    5  C   UNL     1      -0.834  -3.592   4.103  1.00  0.00     0.040 A 
HETATM    6  C   UNL     1      -0.138  -4.797   4.233  1.00  0.00     0.078 A 
ENDROOT
BRANCH   6   7
HETATM    7  O   UNL     1      -0.463  -5.838   5.077  1.00  0.00    -0.292 OA
BRANCH   7   8
HETATM    8  C   UNL     1      -1.442  -5.684   6.029  1.00  0.00     0.169 A 
HETATM    9  N   UNL     1      -2.340  -6.692   6.080  1.00  0.00    -0.236 NA
HETATM   10  C   UNL     1      -3.352  -6.582   6.970  1.00  0.00     0.135 A 
HETATM   11  C   UNL     1      -3.526  -5.495   7.814  1.00  0.00     0.065 A 
HETATM   12  C   UNL     1      -2.555  -4.491   7.779  1.00  0.00     0.022 A 
HETATM   13  C   UNL     1      -1.474  -4.608   6.908  1.00  0.00     0.059 A 
BRANCH  11  14
HETATM   14  C   UNL     1      -4.747  -5.391   8.673  1.00  0.00     0.418 C 
HETATM   15  F   UNL     1      -4.530  -4.705   9.828  1.00  0.00    -0.166 F 
HETATM   16  F   UNL     1      -5.762  -4.740   8.040  1.00  0.00    -0.166 F 
HETATM   17  F   UNL     1      -5.252  -6.599   9.044  1.00  0.00    -0.166 F 
ENDBRANCH  11  14
ENDBRANCH   7   8
ENDBRANCH   6   7
BRANCH   1  18
HETATM   18  O   UNL     1       1.228  -1.917   1.540  1.00  0.00    -0.336 OA
BRANCH  18  19
HETATM   19  C   UNL     1       0.237  -1.255   0.719  1.00  0.00     0.224 C 
HETATM   20  C   UNL     1      -0.465  -2.300  -0.152  1.00  0.00     0.051 C 
BRANCH  19  21
HETATM   21  C   UNL     1       0.988  -0.224  -0.145  1.00  0.00     0.288 C 
HETATM   22  O   UNL     1       2.211  -0.214  -0.255  1.00  0.00    -0.262 OA
BRANCH  21  23
HETATM   23  O   UNL     1       0.263   0.726  -0.798  1.00  0.00    -0.319 OA
BRANCH  23  24
HETATM   24  C   UNL     1      -1.167   0.839  -0.737  1.00  0.00     0.178 C 
BRANCH  24  25
HETATM   25  C   UNL     1      -1.609   2.018  -1.599  1.00  0.00     0.026 C 
BRANCH  25  26
HETATM   26  C   UNL     1      -3.134   2.071  -1.693  1.00  0.00    -0.002 C 
HETATM   27  C   UNL     1      -3.610   3.139  -2.662  1.00  0.00     0.005 C 
ENDBRANCH  25  26
ENDBRANCH  24  25
ENDBRANCH  23  24
ENDBRANCH  21  23
ENDBRANCH  19  21
ENDBRANCH  18  19
ENDBRANCH   1  18
TORSDOF 10
