REMARK  5 active torsions:
REMARK  status: ('A' for Active; 'I' for Inactive)
REMARK    1  A    between atoms: C_2  and  N_9 
REMARK    2  A    between atoms: C_5  and  O_7 
REMARK    3  A    between atoms: O_7  and  C_14 
REMARK    4  A    between atoms: C_8  and  C_14 
REMARK    5  A    between atoms: C_8  and  O_15 
ROOT
HETATM    1  N   UNL     1      -0.851   1.164   0.030  1.00  0.00    -0.193 NA
HETATM    2  C   UNL     1       0.692  -1.218  -0.004  1.00  0.00     0.059 A 
HETATM    3  C   UNL     1      -0.714  -1.259  -0.029  1.00  0.00     0.109 A 
HETATM    4  C   UNL     1       1.304   0.044  -0.024  1.00  0.00     0.114 A 
HETATM    5  C   UNL     1      -1.430  -0.057   0.003  1.00  0.00     0.191 A 
HETATM    6  C   UNL     1       0.502   1.181   0.008  1.00  0.00     0.236 A 
HETATM    7 CL   UNL     1       3.026   0.198  -0.060  1.00  0.00    -0.077 Cl
HETATM    8 CL   UNL     1      -1.535  -2.784  -0.069  1.00  0.00    -0.078 Cl
HETATM    9  F   UNL     1       1.078   2.394   0.015  1.00  0.00    -0.182 F 
ENDROOT
BRANCH   5  10
HETATM   10  O   UNL     1      -2.807  -0.129   0.009  1.00  0.00    -0.323 OA
BRANCH  10  11
HETATM   11  C   UNL     1      -3.458   1.136  -0.003  1.00  0.00     0.287 C 
BRANCH  11  12
HETATM   12  C   UNL     1      -4.968   0.948  -0.011  1.00  0.00     0.165 C 
HETATM   13  O   UNL     1      -5.552  -0.126  -0.006  1.00  0.00    -0.648 OA
BRANCH  12  14
HETATM   14  O   UNL     1      -5.646   2.124  -0.023  1.00  0.00    -0.775 OA
HETATM   15  H   UNL     1      -5.078   2.918  -0.025  1.00  0.00     0.167 HD
ENDBRANCH  12  14
ENDBRANCH  11  12
ENDBRANCH  10  11
ENDBRANCH   5  10
BRANCH   2  16
HETATM   16  N   UNL     1       1.454  -2.398  -0.180  1.00  0.00    -0.300 NA
HETATM   17  H   UNL     1       2.414  -2.332   0.152  1.00  0.00     0.124 HD
HETATM   18  H   UNL     1       0.977  -3.246   0.123  1.00  0.00     0.124 HD
ENDBRANCH   2  16
TORSDOF 5
