REMARK  7 active torsions:
REMARK  status: ('A' for Active; 'I' for Inactive)
REMARK    1  A    between atoms: O_2  and  N_3 
REMARK    2  A    between atoms: C_5  and  C_10 
REMARK    3  A    between atoms: C_10  and  C_15 
REMARK    4  A    between atoms: C_16  and  O_17 
REMARK    5  A    between atoms: O_17  and  C_20 
REMARK    6  A    between atoms: C_24  and  O_25 
REMARK    7  A    between atoms: O_25  and  C_26 
ROOT
HETATM    1  C   UNL     1       4.994   2.553   0.556  1.00  0.00     0.001 A 
HETATM    2  C   UNL     1       6.186   2.331   1.240  1.00  0.00     0.003 A 
HETATM    3  C   UNL     1       4.380   1.507  -0.137  1.00  0.00     0.017 A 
HETATM    4  C   UNL     1       6.762   1.062   1.238  1.00  0.00     0.038 A 
HETATM    5  C   UNL     1       4.941   0.221  -0.129  1.00  0.00     0.033 A 
HETATM    6  C   UNL     1       6.132  -0.000   0.573  1.00  0.00     0.090 A 
ENDROOT
BRANCH   6   7
HETATM    7  O   UNL     1       6.737  -1.238   0.578  1.00  0.00    -0.288 OA
BRANCH   7   8
HETATM    8  C   UNL     1       6.577  -1.915   1.775  1.00  0.00     0.215 A 
HETATM    9  N   UNL     1       5.421  -2.586   1.948  1.00  0.00    -0.215 NA
HETATM   10  C   UNL     1       5.308  -3.240   3.112  1.00  0.00     0.238 A 
HETATM   11  N   UNL     1       6.212  -3.247   4.104  1.00  0.00    -0.215 NA
HETATM   12  C   UNL     1       7.329  -2.520   3.889  1.00  0.00     0.215 A 
HETATM   13  C   UNL     1       7.594  -1.881   2.699  1.00  0.00     0.222 A 
HETATM   14  F   UNL     1       8.741  -1.230   2.459  1.00  0.00    -0.197 F 
BRANCH  12  15
HETATM   15  O   UNL     1       8.203  -2.463   4.960  1.00  0.00    -0.288 OA
BRANCH  15  16
HETATM   16  C   UNL     1       8.581  -1.192   5.344  1.00  0.00     0.099 A 
HETATM   17  C   UNL     1       7.703  -0.267   5.924  1.00  0.00     0.068 A 
HETATM   18  C   UNL     1       8.165   1.007   6.268  1.00  0.00     0.026 A 
HETATM   19 CL   UNL     1       6.052  -0.636   6.262  1.00  0.00    -0.081 Cl
HETATM   20  C   UNL     1       9.500   1.352   6.054  1.00  0.00     0.002 A 
HETATM   21  C   UNL     1      10.383   0.418   5.513  1.00  0.00     0.003 A 
HETATM   22  C   UNL     1       9.929  -0.856   5.170  1.00  0.00     0.039 A 
ENDBRANCH  15  16
ENDBRANCH  12  15
ENDBRANCH   7   8
ENDBRANCH   6   7
BRANCH   5  23
HETATM   23  C   UNL     1       4.297  -0.845  -0.940  1.00  0.00     0.151 C 
HETATM   24  N   UNL     1       3.029  -1.148  -0.977  1.00  0.00    -0.129 NA
BRANCH  24  25
HETATM   25  O   UNL     1       2.277  -0.434  -0.033  1.00  0.00    -0.261 OA
HETATM   26  C   UNL     1       0.912  -0.804  -0.175  1.00  0.00     0.240 C 
ENDBRANCH  24  25
BRANCH  23  27
HETATM   27  C   UNL     1       5.189  -1.602  -1.895  1.00  0.00     0.223 C 
HETATM   28  N   UNL     1       5.422  -2.872  -1.766  1.00  0.00    -0.105 NA
HETATM   29  O   UNL     1       6.260  -3.449  -2.749  1.00  0.00    -0.252 OA
HETATM   30  C   UNL     1       7.252  -2.539  -3.213  1.00  0.00     0.230 C 
HETATM   31  C   UNL     1       6.515  -1.368  -3.817  1.00  0.00     0.206 C 
HETATM   32  O   UNL     1       5.673  -0.758  -2.835  1.00  0.00    -0.329 OA
ENDBRANCH  23  27
ENDBRANCH   5  23
TORSDOF 7
