REMARK  2 active torsions:
REMARK  status: ('A' for Active; 'I' for Inactive)
REMARK       I    between atoms: C_1  and  N_3 
REMARK       I    between atoms: C_1  and  N_4 
REMARK    1  A    between atoms: N_3  and  C_10 
REMARK    2  A    between atoms: N_4  and  C_12 
ROOT
HETATM    1  C   UNL     1       0.878  -0.474   0.093  1.00  0.00     0.325 C 
HETATM    2  O   UNL     1       0.477  -1.623  -0.062  1.00  0.00    -0.247 OA
HETATM    3  N   UNL     1       0.129   0.543   0.669  1.00  0.00    -0.309 N 
HETATM    4  N   UNL     1       2.087   0.017  -0.380  1.00  0.00    -0.309 N 
HETATM    5  H   UNL     1       0.605   1.416   0.838  1.00  0.00     0.170 HD
HETATM    6  H   UNL     1       2.228   1.012  -0.306  1.00  0.00     0.170 HD
ENDROOT
BRANCH   3   7
HETATM    7  C   UNL     1      -1.264   0.525   0.908  1.00  0.00     0.040 A 
HETATM    8  C   UNL     1      -2.064  -0.606   0.770  1.00  0.00     0.073 A 
HETATM    9  C   UNL     1      -3.429  -0.463   0.942  1.00  0.00     0.127 A 
HETATM   10  N   UNL     1      -4.047   0.699   1.236  1.00  0.00    -0.249 NA
HETATM   11 CL   UNL     1      -4.484  -1.805   0.770  1.00  0.00    -0.062 Cl
HETATM   12  C   UNL     1      -3.251   1.774   1.381  1.00  0.00     0.120 A 
HETATM   13  C   UNL     1      -1.871   1.737   1.242  1.00  0.00     0.049 A 
ENDBRANCH   3   7
BRANCH   4  14
HETATM   14  C   UNL     1       2.932  -0.647  -1.298  1.00  0.00     0.036 A 
HETATM   15  C   UNL     1       3.785   0.146  -2.075  1.00  0.00     0.029 A 
HETATM   16  C   UNL     1       4.538  -0.423  -3.105  1.00  0.00     0.002 A 
HETATM   17  C   UNL     1       4.470  -1.793  -3.344  1.00  0.00     0.000 A 
HETATM   18  C   UNL     1       3.671  -2.597  -2.535  1.00  0.00     0.002 A 
HETATM   19  C   UNL     1       2.908  -2.027  -1.513  1.00  0.00     0.029 A 
ENDBRANCH   4  14
TORSDOF 2
