REMARK  7 active torsions:
REMARK  status: ('A' for Active; 'I' for Inactive)
REMARK    1  A    between atoms: C_1  and  S_2 
REMARK    2  A    between atoms: S_2  and  N_3 
REMARK       I    between atoms: N_3  and  C_4 
REMARK       I    between atoms: C_4  and  N_5 
REMARK    3  A    between atoms: N_5  and  C_7 
REMARK    4  A    between atoms: C_10  and  O_13 
REMARK    5  A    between atoms: C_11  and  O_14 
REMARK    6  A    between atoms: C_19  and  C_22 
REMARK    7  A    between atoms: C_22  and  O_26 
ROOT
HETATM    1  N   UNL     1      -0.515  -3.580   1.866  1.00  0.00    -0.230 N 
HETATM    2  C   UNL     1       0.019  -2.798   2.892  1.00  0.00     0.348 C 
HETATM    3  N   UNL     1       0.712  -1.657   2.652  1.00  0.00    -0.137 N 
HETATM    4  O   UNL     1      -0.210  -3.135   4.048  1.00  0.00    -0.245 OA
HETATM    5  H   UNL     1      -1.026  -4.381   2.231  1.00  0.00     0.183 HD
HETATM    6  H   UNL     1       0.802  -1.000   3.412  1.00  0.00     0.189 HD
ENDROOT
BRANCH   1   7
HETATM    7  S   UNL     1      -1.191  -3.136   0.413  1.00  0.00     0.284 S 
HETATM    8  O   UNL     1      -2.598  -3.431   0.554  1.00  0.00    -0.199 OA
HETATM    9  O   UNL     1      -0.429  -3.732  -0.656  1.00  0.00    -0.199 OA
BRANCH   7  10
HETATM   10  C   UNL     1      -1.079  -1.395   0.154  1.00  0.00     0.187 C 
HETATM   11  C   UNL     1       0.044  -0.585  -0.111  1.00  0.00     0.123 C 
HETATM   12  C   UNL     1      -0.475   0.734  -0.104  1.00  0.00     0.165 C 
HETATM   13 CL   UNL     1       0.254   2.234  -0.395  1.00  0.00    -0.059 Cl
HETATM   14  N   UNL     1      -1.778   0.760   0.160  1.00  0.00    -0.158 NA
HETATM   15  N   UNL     1      -2.147  -0.529   0.126  1.00  0.00    -0.259 N 
HETATM   16  C   UNL     1      -3.568  -0.744  -0.029  1.00  0.00     0.181 C 
BRANCH  11  17
HETATM   17  C   UNL     1       1.411  -1.162  -0.514  1.00  0.00     0.299 C 
HETATM   18  O   UNL     1       1.366  -1.584  -1.687  1.00  0.00    -0.259 OA
BRANCH  17  19
HETATM   19  O   UNL     1       3.011  -1.263   0.470  1.00  0.00    -0.322 OA
HETATM   20  C   UNL     1       4.084  -0.920   1.716  1.00  0.00     0.213 C 
ENDBRANCH  17  19
ENDBRANCH  11  17
ENDBRANCH   7  10
ENDBRANCH   1   7
BRANCH   3  21
HETATM   21  C   UNL     1       1.613  -1.502   1.613  1.00  0.00     0.735 A 
HETATM   22  N   UNL     1       2.139  -2.907   0.713  1.00  0.00    -0.038 NA
HETATM   23  C   UNL     1       3.176  -2.681  -0.700  1.00  0.00     0.187 A 
HETATM   24  C   UNL     1       3.640  -1.057  -1.308  1.00  0.00     0.117 A 
HETATM   25  C   UNL     1       3.007   0.358  -0.405  1.00  0.00     0.187 A 
HETATM   26  N   UNL     1       2.015   0.161   1.081  1.00  0.00    -0.038 NA
BRANCH  23  27
HETATM   27  O   UNL     1       3.734  -3.767  -1.338  1.00  0.00    -0.339 OA
HETATM   28  C   UNL     1       3.322  -4.980  -0.727  1.00  0.00     0.211 C 
ENDBRANCH  23  27
BRANCH  25  29
HETATM   29  O   UNL     1       3.211   1.635  -0.849  1.00  0.00    -0.339 OA
HETATM   30  C   UNL     1       3.115   1.691  -2.271  1.00  0.00     0.211 C 
ENDBRANCH  25  29
ENDBRANCH   3  21
TORSDOF 7
