REMARK  7 active torsions:
REMARK  status: ('A' for Active; 'I' for Inactive)
REMARK    1  A    between atoms: N_3  and  C_6 
REMARK    2  A    between atoms: C_6  and  C_7 
REMARK    3  A    between atoms: C_7  and  C_9 
REMARK    4  A    between atoms: C_7  and  C_16 
REMARK    5  A    between atoms: C_7  and  O_20 
REMARK    6  A    between atoms: C_16  and  C_17 
REMARK    7  A    between atoms: C_17  and  C_18 
ROOT
HETATM    1  C   UNL     1      -2.424   2.150  -0.136  1.00  0.00     0.104 C 
ENDROOT
BRANCH   1   2
HETATM    2  C   UNL     1      -0.863   2.260  -0.176  1.00  0.00     0.195 C 
BRANCH   2   3
HETATM    3  N   UNL     1      -0.019   1.090  -0.214  1.00  0.00    -0.259 N 
HETATM    4  C   UNL     1      -0.191  -0.129  -0.788  1.00  0.00     0.230 A 
HETATM    5  N   UNL     1       0.882  -0.863  -0.615  1.00  0.00    -0.234 NA
HETATM    6  C   UNL     1       1.722  -0.024   0.051  1.00  0.00     0.256 A 
HETATM    7  N   UNL     1       1.221   1.183   0.317  1.00  0.00    -0.165 NA
ENDBRANCH   2   3
ENDBRANCH   1   2
BRANCH   1   8
HETATM    8  C   UNL     1      -2.972   1.631  -1.482  1.00  0.00    -0.001 A 
HETATM    9  C   UNL     1      -2.779   2.490  -2.603  1.00  0.00     0.013 A 
HETATM   10  C   UNL     1      -3.090   2.116  -3.911  1.00  0.00     0.024 A 
HETATM   11  C   UNL     1      -3.592   0.851  -4.150  1.00  0.00     0.035 A 
HETATM   12  C   UNL     1      -3.857   0.001  -3.085  1.00  0.00     0.048 A 
HETATM   13 CL   UNL     1      -3.892   0.336  -5.761  1.00  0.00    -0.084 Cl
HETATM   14  C   UNL     1      -3.591   0.397  -1.760  1.00  0.00     0.045 A 
HETATM   15 CL   UNL     1      -4.086  -0.755  -0.579  1.00  0.00    -0.084 Cl
ENDBRANCH   1   8
BRANCH   1  16
HETATM   16  C   UNL     1      -2.962   1.609   1.221  1.00  0.00     0.045 C 
BRANCH  16  17
HETATM   17  C   UNL     1      -2.264   0.390   1.835  1.00  0.00     0.003 C 
BRANCH  17  18
HETATM   18  C   UNL     1      -3.066  -0.226   2.985  1.00  0.00    -0.004 C 
HETATM   19  C   UNL     1      -2.673  -1.681   3.201  1.00  0.00     0.005 C 
ENDBRANCH  17  18
ENDBRANCH  16  17
ENDBRANCH   1  16
BRANCH   1  20
HETATM   20  O   UNL     1      -2.926   3.529  -0.125  1.00  0.00    -0.383 OA
HETATM   21  H   UNL     1      -2.319   4.090   0.387  1.00  0.00     0.211 HD
ENDBRANCH   1  20
TORSDOF 7
