REMARK  4 active torsions:
REMARK  status: ('A' for Active; 'I' for Inactive)
REMARK    1  A    between atoms: C_1  and  C_6 
REMARK    2  A    between atoms: C_5  and  C_12 
REMARK    3  A    between atoms: C_7  and  C_8 
REMARK    4  A    between atoms: C_8  and  O_13 
ROOT
HETATM    1  C   UNL     1       0.885   0.617   0.037  1.00  0.00     0.156 A 
HETATM    2  N   UNL     1       1.012  -0.675   0.127  1.00  0.00    -0.250 NA
HETATM    3  N   UNL     1      -0.395   1.063   0.070  1.00  0.00    -0.308 N 
HETATM    4  C   UNL     1      -1.243   0.005   0.151  1.00  0.00     0.253 A 
HETATM    5  C   UNL     1      -0.363  -1.228   0.284  1.00  0.00     0.136 A 
HETATM    6  O   UNL     1      -2.459   0.060   0.111  1.00  0.00    -0.270 OA
HETATM    7  C   UNL     1      -0.642  -2.174  -0.884  1.00  0.00     0.051 C 
HETATM    8  H   UNL     1      -0.765   1.999  -0.018  1.00  0.00     0.170 HD
ENDROOT
BRANCH   1   9
HETATM    9  C   UNL     1       2.071   1.531  -0.099  1.00  0.00     0.119 A 
HETATM   10  C   UNL     1       2.034   2.912  -0.254  1.00  0.00     0.070 A 
HETATM   11  C   UNL     1       3.240   3.626  -0.295  1.00  0.00     0.022 A 
HETATM   12  C   UNL     1       4.448   2.944  -0.218  1.00  0.00     0.020 A 
HETATM   13  C   UNL     1       4.407   1.569  -0.100  1.00  0.00     0.117 A 
HETATM   14  N   UNL     1       3.259   0.862  -0.045  1.00  0.00    -0.256 NA
BRANCH  10  15
HETATM   15  C   UNL     1       0.806   3.696  -0.337  1.00  0.00     0.178 C 
HETATM   16  O   UNL     1       0.520   4.560   0.470  1.00  0.00    -0.646 OA
BRANCH  15  17
HETATM   17  O   UNL     1       0.025   3.351  -1.379  1.00  0.00    -0.773 OA
HETATM   18  H   UNL     1       0.430   2.776  -2.061  1.00  0.00     0.167 HD
ENDBRANCH  15  17
ENDBRANCH  10  15
ENDBRANCH   1   9
BRANCH   5  19
HETATM   19  C   UNL     1      -0.517  -1.893   1.676  1.00  0.00     0.017 C 
HETATM   20  C   UNL     1       0.422  -3.091   1.867  1.00  0.00     0.012 C 
HETATM   21  C   UNL     1      -0.308  -0.913   2.842  1.00  0.00     0.012 C 
ENDBRANCH   5  19
TORSDOF 4
