REMARK  6 active torsions:
REMARK  status: ('A' for Active; 'I' for Inactive)
REMARK    1  A    between atoms: C_1  and  C_7 
REMARK    2  A    between atoms: C_5  and  C_9 
REMARK    3  A    between atoms: C_6  and  C_15 
REMARK    4  A    between atoms: C_9  and  O_16 
REMARK    5  A    between atoms: C_13  and  C_19 
REMARK    6  A    between atoms: O_18  and  C_19 
ROOT
HETATM    1  C   UNL     1       2.000   2.988  -0.240  1.00  0.00     0.070 A 
HETATM    2  C   UNL     1       2.066   1.601  -0.191  1.00  0.00     0.119 A 
HETATM    3  N   UNL     1       3.256   0.957  -0.335  1.00  0.00    -0.256 NA
HETATM    4  C   UNL     1       3.181   3.729  -0.391  1.00  0.00     0.031 A 
HETATM    5  C   UNL     1       4.409   3.077  -0.528  1.00  0.00    -0.016 A 
HETATM    6  C   UNL     1       4.385   1.691  -0.492  1.00  0.00     0.126 A 
ENDROOT
BRANCH   2   7
HETATM    7  C   UNL     1       0.906   0.661   0.002  1.00  0.00     0.156 A 
HETATM    8  N   UNL     1       1.059  -0.626   0.114  1.00  0.00    -0.250 NA
HETATM    9  C   UNL     1      -0.308  -1.204   0.274  1.00  0.00     0.136 A 
HETATM   10  C   UNL     1      -1.210   0.011   0.137  1.00  0.00     0.253 A 
HETATM   11  C   UNL     1      -0.572  -2.157  -0.892  1.00  0.00     0.051 C 
HETATM   12  N   UNL     1      -0.382   1.083   0.048  1.00  0.00    -0.308 N 
HETATM   13  O   UNL     1      -2.428   0.045   0.093  1.00  0.00    -0.270 OA
HETATM   14  H   UNL     1      -0.773   2.010  -0.045  1.00  0.00     0.170 HD
BRANCH   9  15
HETATM   15  C   UNL     1      -0.461  -1.867   1.667  1.00  0.00     0.017 C 
HETATM   16  C   UNL     1       0.480  -3.062   1.862  1.00  0.00     0.012 C 
HETATM   17  C   UNL     1      -0.260  -0.883   2.831  1.00  0.00     0.012 C 
ENDBRANCH   9  15
ENDBRANCH   2   7
BRANCH   1  18
HETATM   18  C   UNL     1       0.767   3.753  -0.105  1.00  0.00     0.178 C 
HETATM   19  O   UNL     1       0.555   4.512   0.822  1.00  0.00    -0.646 OA
BRANCH  18  20
HETATM   20  O   UNL     1      -0.102   3.522  -1.110  1.00  0.00    -0.773 OA
HETATM   21  H   UNL     1       0.255   3.055  -1.894  1.00  0.00     0.167 HD
ENDBRANCH  18  20
ENDBRANCH   1  18
BRANCH   5  22
HETATM   22  C   UNL     1       5.674   3.877  -0.691  1.00  0.00     0.207 C 
BRANCH  22  23
HETATM   23  O   UNL     1       6.803   3.033  -0.894  1.00  0.00    -0.391 OA
HETATM   24  C   UNL     1       7.997   3.789  -1.057  1.00  0.00     0.201 C 
ENDBRANCH  22  23
ENDBRANCH   5  22
TORSDOF 6
