REMARK  7 active torsions:
REMARK  status: ('A' for Active; 'I' for Inactive)
REMARK    1  A    between atoms: C_1  and  O_7 
REMARK    2  A    between atoms: N_4  and  C_10 
REMARK    3  A    between atoms: P_6  and  O_7 
REMARK    4  A    between atoms: P_6  and  O_11 
REMARK    5  A    between atoms: P_6  and  O_12 
REMARK    6  A    between atoms: O_11  and  C_16 
REMARK    7  A    between atoms: O_12  and  C_15 
ROOT
HETATM    1  C   UNL     1       0.626  -1.103   0.009  1.00  0.00     0.295 A 
HETATM    2  N   UNL     1       1.871  -0.587  -0.059  1.00  0.00    -0.174 NA
HETATM    3  C   UNL     1       1.647   0.703  -0.067  1.00  0.00     0.224 A 
HETATM    4  N   UNL     1       0.308   0.967  -0.053  1.00  0.00    -0.234 N 
HETATM    5  N   UNL     1      -0.372  -0.217  -0.036  1.00  0.00    -0.123 NA
HETATM    6 CL   UNL     1       2.881   1.866  -0.036  1.00  0.00    -0.041 Cl
ENDROOT
BRANCH   1   7
HETATM    7  O   UNL     1       0.272  -2.374   0.178  1.00  0.00    -0.234 OA
BRANCH   7   8
HETATM    8  P   UNL     1       1.216  -3.551   0.743  1.00  0.00     0.336 P 
HETATM    9  S   UNL     1       2.944  -3.190   1.551  1.00  0.00    -0.007 SA
BRANCH   8  10
HETATM   10  O   UNL     1       0.226  -4.315   1.780  1.00  0.00    -0.314 OA
BRANCH  10  11
HETATM   11  C   UNL     1      -1.107  -3.886   1.967  1.00  0.00     0.174 C 
HETATM   12  C   UNL     1      -1.716  -4.745   3.055  1.00  0.00     0.034 C 
ENDBRANCH  10  11
ENDBRANCH   8  10
BRANCH   8  13
HETATM   13  O   UNL     1       1.207  -4.598  -0.500  1.00  0.00    -0.314 OA
BRANCH  13  14
HETATM   14  C   UNL     1       1.341  -5.994  -0.273  1.00  0.00     0.174 C 
HETATM   15  C   UNL     1       2.788  -6.443  -0.315  1.00  0.00     0.034 C 
ENDBRANCH  13  14
ENDBRANCH   8  13
ENDBRANCH   7   8
ENDBRANCH   1   7
BRANCH   4  16
HETATM   16  C   UNL     1      -0.480   2.195  -0.045  1.00  0.00     0.105 C 
HETATM   17  C   UNL     1      -1.329   2.300   1.229  1.00  0.00     0.034 C 
HETATM   18  C   UNL     1       0.267   3.514  -0.254  1.00  0.00     0.034 C 
ENDBRANCH   4  16
TORSDOF 7
