REMARK  6 active torsions:
REMARK  status: ('A' for Active; 'I' for Inactive)
REMARK    1  A    between atoms: C_1  and  C_3 
REMARK    2  A    between atoms: C_1  and  O_4 
REMARK    3  A    between atoms: C_5  and  S_11 
REMARK    4  A    between atoms: S_11  and  N_14 
REMARK       I    between atoms: N_14  and  C_15 
REMARK       I    between atoms: C_15  and  N_17 
REMARK    5  A    between atoms: N_17  and  C_19 
REMARK    6  A    between atoms: C_21  and  O_24 
ROOT
HETATM    1  S   UNL     1       0.226   2.843   0.864  1.00  0.00     0.288 S 
HETATM    2  O   UNL     1      -1.153   3.330   0.814  1.00  0.00    -0.198 OA
HETATM    3  O   UNL     1       1.050   3.358   1.958  1.00  0.00    -0.198 OA
ENDROOT
BRANCH   1   4
HETATM    4  C   UNL     1      -0.087   1.183   1.528  1.00  0.00     0.099 A 
HETATM    5  C   UNL     1       0.352  -0.009   0.963  1.00  0.00     0.062 A 
HETATM    6  C   UNL     1       0.038  -1.227   1.594  1.00  0.00     0.020 A 
HETATM    7  C   UNL     1      -0.707  -1.248   2.778  1.00  0.00     0.019 A 
HETATM    8  C   UNL     1      -1.148  -0.050   3.335  1.00  0.00     0.008 A 
HETATM    9  C   UNL     1      -0.840   1.160   2.720  1.00  0.00     0.044 A 
HETATM   10  I   UNL     1      -2.279  -0.068   5.078  1.00  0.00    -0.045 I 
BRANCH   5  11
HETATM   11  C   UNL     1       1.110  -0.102  -0.286  1.00  0.00     0.294 C 
HETATM   12  O   UNL     1       0.627  -0.453  -1.350  1.00  0.00    -0.259 OA
BRANCH  11  13
HETATM   13  O   UNL     1       2.421   0.096  -0.006  1.00  0.00    -0.322 OA
HETATM   14  C   UNL     1       3.264   0.019  -1.153  1.00  0.00     0.213 C 
ENDBRANCH  11  13
ENDBRANCH   5  11
ENDBRANCH   1   4
BRANCH   1  15
HETATM   15  N   UNL     1       0.950   2.780  -0.557  1.00  0.00    -0.102 NA
HETATM   16  C   UNL     1       1.235   3.969  -1.093  1.00  0.00     0.371 C 
HETATM   17  O   UNL     1       1.044   5.073  -0.587  1.00  0.00    -0.243 OA
HETATM   18  N   UNL     1       1.809   3.831  -2.346  1.00  0.00    -0.135 N 
HETATM   19  H   UNL     1       1.949   2.904  -2.706  1.00  0.00     0.189 HD
BRANCH  18  20
HETATM   20  C   UNL     1       2.164   4.892  -3.188  1.00  0.00     0.736 A 
HETATM   21  N   UNL     1       1.939   6.140  -2.802  1.00  0.00    -0.047 NA
HETATM   22  C   UNL     1       2.251   7.109  -3.643  1.00  0.00     0.145 A 
HETATM   23  N   UNL     1       2.784   6.911  -4.840  1.00  0.00    -0.191 NA
HETATM   24  C   UNL     1       1.944   8.507  -3.213  1.00  0.00     0.094 C 
HETATM   25  C   UNL     1       2.986   5.630  -5.137  1.00  0.00     0.286 A 
HETATM   26  N   UNL     1       2.701   4.574  -4.368  1.00  0.00    -0.018 NA
BRANCH  25  27
HETATM   27  O   UNL     1       3.531   5.457  -6.393  1.00  0.00    -0.324 OA
HETATM   28  C   UNL     1       3.816   4.109  -6.723  1.00  0.00     0.213 C 
ENDBRANCH  25  27
ENDBRANCH  18  20
ENDBRANCH   1  15
TORSDOF 6
