REMARK  10 active torsions:
REMARK  status: ('A' for Active; 'I' for Inactive)
REMARK    1  A    between atoms: C_3  and  S_11 
REMARK    2  A    between atoms: C_5  and  C_8 
REMARK    3  A    between atoms: C_6  and  C_7 
REMARK    4  A    between atoms: C_7  and  N_28 
REMARK    5  A    between atoms: C_8  and  O_9 
REMARK    6  A    between atoms: S_11  and  N_14 
REMARK       I    between atoms: N_14  and  C_15 
REMARK       I    between atoms: C_15  and  N_17 
REMARK    7  A    between atoms: N_17  and  C_20 
REMARK    8  A    between atoms: C_22  and  O_26 
REMARK    9  A    between atoms: C_23  and  O_24 
REMARK   10  A    between atoms: N_28  and  S_30 
ROOT
HETATM    1  S   UNL     1       3.323  -0.176  -0.193  1.00  0.00     0.267 S 
HETATM    2  O   UNL     1       3.565   0.462  -1.470  1.00  0.00    -0.200 OA
HETATM    3  O   UNL     1       3.792   0.301   1.088  1.00  0.00    -0.200 OA
ENDROOT
BRANCH   1   4
HETATM    4  C   UNL     1       1.556  -0.221  -0.063  1.00  0.00     0.096 A 
HETATM    5  C   UNL     1       0.836   0.996   0.023  1.00  0.00     0.062 A 
HETATM    6  C   UNL     1      -0.565   0.941   0.095  1.00  0.00     0.020 A 
HETATM    7  C   UNL     1      -1.240  -0.281   0.066  1.00  0.00     0.010 A 
HETATM    8  C   UNL     1      -0.536  -1.483  -0.085  1.00  0.00    -0.038 A 
HETATM    9  C   UNL     1       0.871  -1.444  -0.133  1.00  0.00     0.035 A 
BRANCH   5  10
HETATM   10  C   UNL     1       1.398   2.382  -0.092  1.00  0.00     0.294 C 
HETATM   11  O   UNL     1       0.774   3.310  -0.584  1.00  0.00    -0.259 OA
BRANCH  10  12
HETATM   12  O   UNL     1       2.639   2.478   0.408  1.00  0.00    -0.322 OA
HETATM   13  C   UNL     1       3.567   3.179  -0.428  1.00  0.00     0.213 C 
ENDBRANCH  10  12
ENDBRANCH   5  10
BRANCH   8  14
HETATM   14  C   UNL     1      -1.247  -2.822  -0.153  1.00  0.00     0.170 C 
BRANCH  14  15
HETATM   15  N   UNL     1      -2.661  -2.720  -0.519  1.00  0.00    -0.316 N 
HETATM   16  H   UNL     1      -2.902  -2.076  -1.271  1.00  0.00     0.172 HD
BRANCH  15  17
HETATM   17  S   UNL     1      -3.573  -4.126  -0.531  1.00  0.00     0.223 S 
HETATM   18  C   UNL     1      -3.002  -4.929  -2.015  1.00  0.00     0.185 C 
HETATM   19  O   UNL     1      -3.188  -4.926   0.601  1.00  0.00    -0.206 OA
HETATM   20  O   UNL     1      -4.944  -3.713  -0.760  1.00  0.00    -0.206 OA
ENDBRANCH  15  17
ENDBRANCH  14  15
ENDBRANCH   8  14
ENDBRANCH   1   4
BRANCH   1  21
HETATM   21  N   UNL     1       3.972  -1.732  -0.308  1.00  0.00    -0.231 N 
HETATM   22  C   UNL     1       5.387  -1.757  -0.427  1.00  0.00     0.348 C 
HETATM   23  O   UNL     1       6.010  -0.718  -0.618  1.00  0.00    -0.245 OA
HETATM   24  N   UNL     1       5.955  -2.992  -0.331  1.00  0.00    -0.137 N 
HETATM   25  H   UNL     1       5.404  -3.828  -0.274  1.00  0.00     0.189 HD
HETATM   26  H   UNL     1       3.535  -2.449   0.253  1.00  0.00     0.183 HD
BRANCH  24  27
HETATM   27  C   UNL     1       7.332  -3.200  -0.452  1.00  0.00     0.735 A 
HETATM   28  N   UNL     1       8.159  -2.157  -0.532  1.00  0.00    -0.038 NA
HETATM   29  C   UNL     1       9.466  -2.395  -0.679  1.00  0.00     0.187 A 
HETATM   30  C   UNL     1       9.989  -3.652  -0.740  1.00  0.00     0.117 A 
HETATM   31  C   UNL     1       9.066  -4.662  -0.635  1.00  0.00     0.187 A 
HETATM   32  N   UNL     1       7.735  -4.477  -0.486  1.00  0.00    -0.038 NA
BRANCH  29  33
HETATM   33  O   UNL     1      10.349  -1.339  -0.779  1.00  0.00    -0.339 OA
HETATM   34  C   UNL     1       9.705  -0.066  -0.718  1.00  0.00     0.211 C 
ENDBRANCH  29  33
BRANCH  31  35
HETATM   35  O   UNL     1       9.593  -5.939  -0.698  1.00  0.00    -0.339 OA
HETATM   36  C   UNL     1       8.621  -6.971  -0.608  1.00  0.00     0.211 C 
ENDBRANCH  31  35
ENDBRANCH  24  27
ENDBRANCH   1  21
TORSDOF 10
