REMARK  2 active torsions:
REMARK  status: ('A' for Active; 'I' for Inactive)
REMARK    1  A    between atoms: O_5  and  C_10 
REMARK    2  A    between atoms: O_6  and  C_20 
ROOT
HETATM    1  O   UNL     1      -3.427   0.610   1.246  1.00  0.00    -0.349 OA
HETATM    2  O   UNL     1      -3.351   1.928  -0.729  1.00  0.00    -0.350 OA
HETATM    3  O   UNL     1       0.650   1.084   0.680  1.00  0.00    -0.315 OA
HETATM    4  O   UNL     1       5.053  -0.573   0.981  1.00  0.00    -0.375 OA
HETATM    5  O   UNL     1       1.138   2.465  -1.084  1.00  0.00    -0.264 OA
HETATM    6  C   UNL     1      -3.066   1.875   0.671  1.00  0.00     0.167 C 
HETATM    7  C   UNL     1      -1.562   2.141   0.868  1.00  0.00     0.101 C 
HETATM    8  C   UNL     1       3.469   0.209  -0.581  1.00  0.00     0.128 C 
HETATM    9  C   UNL     1      -0.738   0.990   0.304  1.00  0.00     0.139 C 
HETATM   10  C   UNL     1      -3.863   2.969   1.400  1.00  0.00     0.069 C 
HETATM   11  C   UNL     1      -5.597   2.854  -0.413  1.00  0.00     0.010 C 
HETATM   12  C   UNL     1       4.963   0.001  -0.344  1.00  0.00     0.194 C 
HETATM   13  C   UNL     1      -5.355   2.868   1.101  1.00  0.00     0.012 C 
HETATM   14  C   UNL     1      -1.222  -0.316   0.913  1.00  0.00     0.065 C 
HETATM   15  C   UNL     1      -2.715  -0.506   0.695  1.00  0.00     0.131 C 
HETATM   16  C   UNL     1       2.935   1.417   0.237  1.00  0.00     0.150 C 
HETATM   17  C   UNL     1      -4.736   1.754  -1.061  1.00  0.00     0.124 C 
HETATM   18  C   UNL     1       5.807   1.280  -0.520  1.00  0.00     0.179 C 
HETATM   19  C   UNL     1       2.978  -1.104  -0.017  1.00  0.00    -0.019 C 
HETATM   20  C   UNL     1       3.826   2.634   0.185  1.00  0.00    -0.004 C 
HETATM   21  C   UNL     1       1.496   1.745  -0.162  1.00  0.00     0.270 C 
HETATM   22  C   UNL     1       5.134   2.574  -0.127  1.00  0.00    -0.056 C 
HETATM   23  C   UNL     1       3.914  -1.463   1.105  1.00  0.00     0.206 C 
HETATM   24  C   UNL     1      -3.228  -1.789   1.378  1.00  0.00     0.059 C 
HETATM   25  C   UNL     1      -7.088   2.690  -0.704  1.00  0.00     0.012 C 
HETATM   26  C   UNL     1      -4.813   1.771  -2.586  1.00  0.00     0.040 C 
HETATM   27  C   UNL     1       1.962  -1.828  -0.513  1.00  0.00     0.008 C 
HETATM   28  C   UNL     1       5.980   3.817  -0.172  1.00  0.00     0.046 C 
HETATM   29  C   UNL     1      -2.443  -3.022   0.999  1.00  0.00    -0.022 C 
HETATM   30  C   UNL     1      -2.653  -3.844  -0.048  1.00  0.00    -0.087 C 
HETATM   31  C   UNL     1       1.436  -3.055   0.039  1.00  0.00    -0.003 C 
HETATM   32  C   UNL     1      -1.738  -5.019  -0.384  1.00  0.00     0.041 C 
HETATM   33  C   UNL     1      -0.237  -4.953   0.020  1.00  0.00     0.008 C 
HETATM   34  C   UNL     1       0.461  -3.747  -0.575  1.00  0.00    -0.022 C 
HETATM   35  C   UNL     1      -3.800  -3.679  -1.013  1.00  0.00     0.043 C 
HETATM   36  C   UNL     1       0.471  -6.231  -0.442  1.00  0.00     0.014 C 
ENDROOT
BRANCH   8  37
HETATM   37  O   UNL     1       3.207   0.322  -1.974  1.00  0.00    -0.381 OA
HETATM   38  H   UNL     1       3.448  -0.517  -2.403  1.00  0.00     0.211 HD
ENDBRANCH   8  37
BRANCH  18  39
HETATM   39  O   UNL     1       7.049   1.145   0.172  1.00  0.00    -0.389 OA
HETATM   40  H   UNL     1       6.948   0.380   0.770  1.00  0.00     0.210 HD
ENDBRANCH  18  39
TORSDOF 2
