REMARK  8 active torsions:
REMARK  status: ('A' for Active; 'I' for Inactive)
REMARK       I    between atoms: C_1  and  N_3 
REMARK       I    between atoms: C_1  and  N_4 
REMARK    1  A    between atoms: N_3  and  C_7 
REMARK    2  A    between atoms: N_4  and  S_15 
REMARK    3  A    between atoms: C_9  and  O_13 
REMARK    4  A    between atoms: C_10  and  O_11 
REMARK    5  A    between atoms: S_15  and  C_18 
REMARK    6  A    between atoms: C_19  and  C_27 
REMARK    7  A    between atoms: C_22  and  N_24 
REMARK    8  A    between atoms: N_24  and  C_25 
REMARK       I    between atoms: C_27  and  N_29 
ROOT
HETATM    1  S   UNL     1       2.991  -1.029   0.477  1.00  0.00     0.250 S 
HETATM    2  O   UNL     1       2.731  -0.933   1.897  1.00  0.00    -0.205 OA
HETATM    3  O   UNL     1       2.643  -2.172  -0.335  1.00  0.00    -0.205 OA
ENDROOT
BRANCH   1   4
HETATM    4  N   UNL     1       2.227   0.279  -0.272  1.00  0.00    -0.130 NA
HETATM    5  C   UNL     1       0.813   0.232  -0.184  1.00  0.00     0.326 C 
HETATM    6  O   UNL     1       0.251  -0.538   0.582  1.00  0.00    -0.252 OA
HETATM    7  N   UNL     1       0.165   1.139  -0.968  1.00  0.00    -0.141 N 
HETATM    8  H   UNL     1       0.587   2.033  -1.138  1.00  0.00     0.189 HD
HETATM    9  H   UNL     1       2.601   0.519  -1.183  1.00  0.00     0.151 HD
BRANCH   7  10
HETATM   10  C   UNL     1      -1.225   1.098  -1.062  1.00  0.00     0.735 A 
HETATM   11  N   UNL     1      -1.841  -0.088  -1.032  1.00  0.00    -0.038 NA
HETATM   12  C   UNL     1      -3.179  -0.086  -1.040  1.00  0.00     0.187 A 
HETATM   13  C   UNL     1      -3.925   1.057  -1.098  1.00  0.00     0.117 A 
HETATM   14  C   UNL     1      -3.194   2.217  -1.168  1.00  0.00     0.187 A 
HETATM   15  N   UNL     1      -1.847   2.273  -1.190  1.00  0.00    -0.038 NA
BRANCH  12  16
HETATM   16  O   UNL     1      -3.869  -1.281  -0.975  1.00  0.00    -0.339 OA
HETATM   17  C   UNL     1      -3.011  -2.418  -0.883  1.00  0.00     0.211 C 
ENDBRANCH  12  16
BRANCH  14  18
HETATM   18  O   UNL     1      -3.933   3.385  -1.208  1.00  0.00    -0.339 OA
HETATM   19  C   UNL     1      -3.145   4.556  -1.030  1.00  0.00     0.211 C 
ENDBRANCH  14  18
ENDBRANCH   7  10
ENDBRANCH   1   4
BRANCH   1  20
HETATM   20  C   UNL     1       4.738  -0.804   0.351  1.00  0.00     0.092 A 
HETATM   21  C   UNL     1       5.582  -1.926   0.363  1.00  0.00     0.055 A 
HETATM   22  C   UNL     1       6.969  -1.730   0.345  1.00  0.00     0.021 A 
HETATM   23  C   UNL     1       7.504  -0.441   0.322  1.00  0.00     0.030 A 
HETATM   24  C   UNL     1       6.666   0.679   0.312  1.00  0.00     0.035 A 
HETATM   25  C   UNL     1       5.277   0.498   0.348  1.00  0.00     0.055 A 
BRANCH  21  26
HETATM   26  C   UNL     1       5.150  -3.327   0.146  1.00  0.00     0.254 C 
HETATM   27  O   UNL     1       5.506  -3.809  -0.931  1.00  0.00    -0.267 OA
HETATM   28  N   UNL     1       4.449  -4.058   1.103  1.00  0.00    -0.357 N 
HETATM   29  C   UNL     1       3.948  -3.576   2.380  1.00  0.00     0.152 C 
HETATM   30  C   UNL     1       3.896  -5.324   0.648  1.00  0.00     0.152 C 
ENDBRANCH  21  26
BRANCH  24  31
HETATM   31  N   UNL     1       7.300   1.930   0.247  1.00  0.00    -0.334 N 
HETATM   32  H   UNL     1       8.312   1.954   0.179  1.00  0.00     0.168 HD
BRANCH  31  33
HETATM   33  C   UNL     1       6.738   3.171   0.235  1.00  0.00     0.353 C 
HETATM   34  O   UNL     1       7.405   4.193   0.131  1.00  0.00    -0.283 OA
ENDBRANCH  31  33
ENDBRANCH  24  31
ENDBRANCH   1  20
TORSDOF 8
