REMARK  7 active torsions:
REMARK  status: ('A' for Active; 'I' for Inactive)
REMARK       I    between atoms: C_1  and  N_3 
REMARK    1  A    between atoms: C_1  and  C_4 
REMARK    2  A    between atoms: C_2  and  O_9 
REMARK    3  A    between atoms: C_2  and  C_8 
REMARK       I    between atoms: N_3  and  C_5 
REMARK       I    between atoms: C_5  and  N_12 
REMARK    4  A    between atoms: O_6  and  C_8 
REMARK    5  A    between atoms: O_6  and  C_7 
REMARK    6  A    between atoms: O_9  and  C_10 
REMARK    7  A    between atoms: N_12  and  C_17 
ROOT
HETATM    1  C   UNL     1       5.310   0.482   0.233  1.00  0.00     0.097 A 
HETATM    2  C   UNL     1       5.386  -0.831  -0.245  1.00  0.00     0.069 A 
HETATM    3  C   UNL     1       4.324  -1.379  -0.984  1.00  0.00     0.056 A 
HETATM    4  C   UNL     1       3.179  -0.631  -1.257  1.00  0.00     0.038 A 
HETATM    5  C   UNL     1       4.184   1.244  -0.099  1.00  0.00     0.041 A 
HETATM    6 CL   UNL     1       6.759  -1.852  -0.041  1.00  0.00    -0.081 Cl
HETATM    7  C   UNL     1       3.132   0.698  -0.839  1.00  0.00     0.032 A 
ENDROOT
BRANCH   4   8
HETATM    8  N   UNL     1       2.143  -1.246  -1.987  1.00  0.00    -0.309 N 
HETATM    9  C   UNL     1       0.820  -0.917  -2.065  1.00  0.00     0.327 C 
HETATM   10  N   UNL     1       0.266  -0.159  -1.078  1.00  0.00    -0.275 N 
HETATM   11  O   UNL     1       0.118  -1.344  -2.981  1.00  0.00    -0.247 OA
HETATM   12  C   UNL     1       0.356  -0.509   0.260  1.00  0.00     0.265 C 
HETATM   13  H   UNL     1      -0.629   0.223  -1.349  1.00  0.00     0.173 HD
HETATM   14  O   UNL     1       0.945  -1.496   0.687  1.00  0.00    -0.267 OA
HETATM   15  H   UNL     1       2.371  -2.071  -2.527  1.00  0.00     0.170 HD
BRANCH  12  16
HETATM   16  C   UNL     1      -0.284   0.419   1.218  1.00  0.00     0.109 A 
HETATM   17  C   UNL     1      -0.754  -0.059   2.441  1.00  0.00     0.135 A 
HETATM   18  F   UNL     1      -0.756  -1.370   2.721  1.00  0.00    -0.205 F 
HETATM   19  C   UNL     1      -1.257   0.814   3.406  1.00  0.00     0.043 A 
HETATM   20  C   UNL     1      -1.290   2.185   3.158  1.00  0.00     0.006 A 
HETATM   21  C   UNL     1      -0.830   2.675   1.937  1.00  0.00     0.043 A 
HETATM   22  C   UNL     1      -0.332   1.793   0.978  1.00  0.00     0.135 A 
HETATM   23  F   UNL     1       0.122   2.312  -0.172  1.00  0.00    -0.205 F 
ENDBRANCH  12  16
ENDBRANCH   4   8
BRANCH   1  24
HETATM   24  O   UNL     1       6.257   1.202   0.898  1.00  0.00    -0.278 OA
BRANCH  24  25
HETATM   25  C   UNL     1       6.947   0.670   2.028  1.00  0.00     0.414 C 
HETATM   26  F   UNL     1       8.013  -0.031   1.575  1.00  0.00    -0.169 F 
HETATM   27  F   UNL     1       7.483   1.755   2.665  1.00  0.00    -0.169 F 
BRANCH  25  28
HETATM   28  C   UNL     1       6.120  -0.136   3.067  1.00  0.00     0.418 C 
HETATM   29  F   UNL     1       5.043   0.619   3.450  1.00  0.00    -0.210 F 
BRANCH  28  30
HETATM   30  O   UNL     1       6.789  -0.450   4.285  1.00  0.00    -0.253 OA
BRANCH  30  31
HETATM   31  C   UNL     1       7.891  -1.296   4.068  1.00  0.00     0.527 C 
HETATM   32  F   UNL     1       7.607  -2.215   3.128  1.00  0.00    -0.144 F 
HETATM   33  F   UNL     1       8.959  -0.573   3.696  1.00  0.00    -0.144 F 
HETATM   34  F   UNL     1       8.182  -1.934   5.218  1.00  0.00    -0.144 F 
ENDBRANCH  30  31
ENDBRANCH  28  30
ENDBRANCH  25  28
ENDBRANCH  24  25
ENDBRANCH   1  24
TORSDOF 7
