REMARK  9 active torsions:
REMARK  status: ('A' for Active; 'I' for Inactive)
REMARK    1  A    between atoms: C_1  and  O_7 
REMARK    2  A    between atoms: C_2  and  S_8 
REMARK    3  A    between atoms: C_4  and  C_9 
REMARK    4  A    between atoms: O_7  and  C_29 
REMARK    5  A    between atoms: S_8  and  N_15 
REMARK    6  A    between atoms: N_15  and  C_16 
REMARK    7  A    between atoms: C_21  and  O_25 
REMARK    8  A    between atoms: C_23  and  O_27 
REMARK    9  A    between atoms: C_29  and  C_30 
ROOT
HETATM    1  S   UNL     1       3.111  -1.583   0.180  1.00  0.00     0.251 S 
HETATM    2  O   UNL     1       3.675  -1.271  -1.115  1.00  0.00    -0.205 OA
HETATM    3  O   UNL     1       3.656  -1.117   1.437  1.00  0.00    -0.205 OA
ENDROOT
BRANCH   1   4
HETATM    4  C   UNL     1       1.458  -0.871   0.129  1.00  0.00     0.123 A 
HETATM    5  C   UNL     1       0.213  -1.524   0.266  1.00  0.00     0.092 A 
HETATM    6  C   UNL     1      -0.967  -0.737   0.170  1.00  0.00     0.038 A 
HETATM    7  C   UNL     1      -0.966   0.633  -0.033  1.00  0.00     0.004 A 
HETATM    8  C   UNL     1       0.246   1.276  -0.134  1.00  0.00     0.018 A 
HETATM    9  C   UNL     1       1.466   0.561  -0.053  1.00  0.00     0.073 A 
BRANCH   5  10
HETATM   10  O   UNL     1      -0.241  -2.775   0.536  1.00  0.00    -0.344 OA
BRANCH  10  11
HETATM   11  C   UNL     1       0.442  -4.009   0.493  1.00  0.00     0.246 C 
BRANCH  11  12
HETATM   12  C   UNL     1      -0.560  -5.152   0.624  1.00  0.00     0.377 C 
HETATM   13  F   UNL     1      -1.061  -5.460  -0.603  1.00  0.00    -0.212 F 
HETATM   14  F   UNL     1       0.069  -6.269   1.070  1.00  0.00    -0.212 F 
ENDBRANCH  11  12
ENDBRANCH  10  11
ENDBRANCH   5  10
BRANCH   9  15
HETATM   15  C   UNL     1       2.685   1.484  -0.117  1.00  0.00     0.419 C 
HETATM   16  F   UNL     1       2.624   2.288  -1.222  1.00  0.00    -0.166 F 
HETATM   17  F   UNL     1       2.691   2.347   0.942  1.00  0.00    -0.166 F 
HETATM   18  F   UNL     1       3.922   0.947  -0.141  1.00  0.00    -0.166 F 
ENDBRANCH   9  15
ENDBRANCH   1   4
BRANCH   1  19
HETATM   19  N   UNL     1       3.009  -3.224   0.175  1.00  0.00    -0.146 NA
HETATM   20  H   UNL     1       2.798  -3.548  -0.765  1.00  0.00     0.149 HD
BRANCH  19  21
HETATM   21  C   UNL     1       3.997  -4.054   0.664  1.00  0.00     0.236 A 
HETATM   22  N   UNL     1       5.201  -3.713   1.117  1.00  0.00    -0.128 NA
HETATM   23  N   UNL     1       5.769  -4.929   1.316  1.00  0.00    -0.170 N 
HETATM   24  C   UNL     1       7.086  -5.200   1.694  1.00  0.00     0.271 A 
HETATM   25  C   UNL     1       4.882  -5.932   1.021  1.00  0.00     0.193 A 
HETATM   26  N   UNL     1       7.539  -6.414   1.826  1.00  0.00    -0.216 NA
HETATM   27  C   UNL     1       6.631  -7.431   1.580  1.00  0.00     0.161 A 
HETATM   28  C   UNL     1       5.345  -7.261   1.196  1.00  0.00     0.134 A 
HETATM   29  N   UNL     1       3.766  -5.398   0.576  1.00  0.00    -0.194 NA
BRANCH  24  30
HETATM   30  O   UNL     1       7.814  -4.070   1.872  1.00  0.00    -0.324 OA
HETATM   31  C   UNL     1       9.202  -4.278   2.153  1.00  0.00     0.213 C 
ENDBRANCH  24  30
BRANCH  28  32
HETATM   32  O   UNL     1       4.397  -8.217   0.941  1.00  0.00    -0.351 OA
HETATM   33  C   UNL     1       4.770  -9.579   1.094  1.00  0.00     0.210 C 
ENDBRANCH  28  32
ENDBRANCH  19  21
ENDBRANCH   1  19
TORSDOF 9
