REMARK  5 active torsions:
REMARK  status: ('A' for Active; 'I' for Inactive)
REMARK    1  A    between atoms: P_1  and  O_5 
REMARK    2  A    between atoms: P_1  and  O_8 
REMARK    3  A    between atoms: P_1  and  O_9 
REMARK    4  A    between atoms: C_2  and  C_3 
REMARK       I    between atoms: C_3  and  N_10 
REMARK    5  A    between atoms: C_4  and  O_5 
ROOT
HETATM    1  C   UNL     1       0.738   1.773   2.300  1.00  0.00     0.106 C 
HETATM    2  C   UNL     1       0.844   2.539   1.196  1.00  0.00     0.060 C 
HETATM    3  C   UNL     1       0.913   2.062  -0.227  1.00  0.00     0.077 C 
ENDROOT
BRANCH   2   4
HETATM    4  O   UNL     1       0.958   3.930   1.253  1.00  0.00    -0.255 OA
BRANCH   4   5
HETATM    5  P   UNL     1       0.988   4.918   2.574  1.00  0.00     0.481 P 
HETATM    6  O   UNL     1       0.988   6.380   2.122  1.00  0.00    -0.227 OA
BRANCH   5   7
HETATM    7  O   UNL     1       2.718   4.918   2.574  1.00  0.00    -0.297 OA
HETATM    8  C   UNL     1       3.415   3.719   2.819  1.00  0.00     0.215 C 
ENDBRANCH   5   7
BRANCH   5   9
HETATM    9  O   UNL     1      -0.742   4.918   2.574  1.00  0.00    -0.297 OA
HETATM   10  C   UNL     1      -1.303   4.787   3.863  1.00  0.00     0.215 C 
ENDBRANCH   5   9
ENDBRANCH   4   5
ENDBRANCH   2   4
BRANCH   1  11
HETATM   11  C   UNL     1       0.726   0.279   2.355  1.00  0.00     0.243 C 
HETATM   12  O   UNL     1       0.646  -0.437   1.374  1.00  0.00    -0.269 OA
HETATM   13  N   UNL     1       0.847  -0.200   3.643  1.00  0.00    -0.362 N 
HETATM   14  C   UNL     1       0.923  -1.615   3.925  1.00  0.00     0.149 C 
HETATM   15  H   UNL     1       0.896   0.428   4.430  1.00  0.00     0.162 HD
ENDBRANCH   1  11
TORSDOF 5
