REMARK  5 active torsions:
REMARK  status: ('A' for Active; 'I' for Inactive)
REMARK    1  A    between atoms: P_1  and  O_3 
REMARK    2  A    between atoms: P_1  and  O_4 
REMARK    3  A    between atoms: P_1  and  S_5 
REMARK    4  A    between atoms: S_5  and  C_8 
REMARK    5  A    between atoms: C_8  and  N_17 
ROOT
HETATM    1  N   UNL     1       5.546  -2.709  -1.587  1.00  0.00    -0.239 NA
HETATM    2  C   UNL     1       6.619  -3.547  -1.567  1.00  0.00     0.143 A 
HETATM    3  C   UNL     1       5.869  -1.412  -1.627  1.00  0.00     0.169 A 
HETATM    4  C   UNL     1       7.151  -0.911  -1.654  1.00  0.00     0.128 A 
HETATM    5  C   UNL     1       7.955  -3.125  -1.585  1.00  0.00     0.054 A 
HETATM    6  C   UNL     1       8.236  -1.761  -1.627  1.00  0.00     0.066 A 
HETATM    7  O   UNL     1       7.196   0.467  -1.721  1.00  0.00    -0.257 OA
HETATM    8  C   UNL     1       5.833   0.800  -1.742  1.00  0.00     0.374 A 
HETATM    9  N   UNL     1       5.043  -0.321  -1.680  1.00  0.00    -0.265 N 
HETATM   10  O   UNL     1       5.438   1.958  -1.813  1.00  0.00    -0.237 OA
HETATM   11 CL   UNL     1       9.233  -4.272  -1.566  1.00  0.00    -0.083 Cl
ENDROOT
BRANCH   9  12
HETATM   12  C   UNL     1       3.608  -0.360  -1.601  1.00  0.00     0.222 C 
BRANCH  12  13
HETATM   13  S   UNL     1       3.075   0.065   0.061  1.00  0.00    -0.025 SA
BRANCH  13  14
HETATM   14  P   UNL     1       0.955   0.065   0.061  1.00  0.00     0.391 P 
HETATM   15  O   UNL     1       1.006  -1.385  -0.423  1.00  0.00    -0.246 OA
BRANCH  14  16
HETATM   16  O   UNL     1       0.830   0.105   1.713  1.00  0.00    -0.311 OA
HETATM   17  C   UNL     1       1.618  -0.709   2.563  1.00  0.00     0.213 C 
ENDBRANCH  14  16
BRANCH  14  18
HETATM   18  O   UNL     1      -0.775   0.065   0.061  1.00  0.00    -0.311 OA
HETATM   19  C   UNL     1      -1.342   0.384  -1.194  1.00  0.00     0.213 C 
ENDBRANCH  14  18
ENDBRANCH  13  14
ENDBRANCH  12  13
ENDBRANCH   9  12
TORSDOF 5
