REMARK  10 active torsions:
REMARK  status: ('A' for Active; 'I' for Inactive)
REMARK    1  A    between atoms: C_1  and  C_2 
REMARK    2  A    between atoms: C_1  and  O_5 
REMARK    3  A    between atoms: C_2  and  O_6 
REMARK    4  A    between atoms: O_5  and  C_24 
REMARK    5  A    between atoms: O_6  and  C_7 
REMARK    6  A    between atoms: C_12  and  O_13 
REMARK    7  A    between atoms: O_13  and  C_16 
REMARK    8  A    between atoms: C_18  and  C_20 
REMARK    9  A    between atoms: C_24  and  C_25 
REMARK   10  A    between atoms: C_25  and  C_26 
ROOT
HETATM    1  C   UNL     1       0.655   2.410   2.693  1.00  0.00     0.070 A 
HETATM    2  C   UNL     1       0.168   2.163   3.975  1.00  0.00     0.039 A 
HETATM    3  C   UNL     1       0.818   3.720   2.252  1.00  0.00     0.039 A 
HETATM    4  C   UNL     1      -0.195   3.225   4.802  1.00  0.00     0.040 A 
HETATM    5  C   UNL     1       0.450   4.788   3.081  1.00  0.00     0.040 A 
HETATM    6  C   UNL     1      -0.031   4.543   4.372  1.00  0.00     0.078 A 
ENDROOT
BRANCH   6   7
HETATM    7  O   UNL     1      -0.397   5.495   5.298  1.00  0.00    -0.292 OA
BRANCH   7   8
HETATM    8  C   UNL     1       0.037   6.791   5.158  1.00  0.00     0.169 A 
HETATM    9  N   UNL     1      -0.930   7.722   5.305  1.00  0.00    -0.236 NA
HETATM   10  C   UNL     1      -0.571   9.017   5.160  1.00  0.00     0.135 A 
HETATM   11  C   UNL     1       0.719   9.436   4.870  1.00  0.00     0.065 A 
HETATM   12  C   UNL     1       1.710   8.454   4.778  1.00  0.00     0.022 A 
HETATM   13  C   UNL     1       1.373   7.114   4.955  1.00  0.00     0.059 A 
BRANCH  11  14
HETATM   14  C   UNL     1       1.001  10.881   4.603  1.00  0.00     0.418 C 
HETATM   15  F   UNL     1       2.229  11.274   5.040  1.00  0.00    -0.166 F 
HETATM   16  F   UNL     1       0.970  11.168   3.272  1.00  0.00    -0.166 F 
HETATM   17  F   UNL     1       0.108  11.725   5.187  1.00  0.00    -0.166 F 
ENDBRANCH  11  14
ENDBRANCH   7   8
ENDBRANCH   6   7
BRANCH   1  18
HETATM   18  O   UNL     1       1.135   1.392   1.922  1.00  0.00    -0.336 OA
BRANCH  18  19
HETATM   19  C   UNL     1       0.136   0.652   1.179  1.00  0.00     0.224 C 
HETATM   20  C   UNL     1      -0.591  -0.302   2.126  1.00  0.00     0.051 C 
BRANCH  19  21
HETATM   21  C   UNL     1       0.897  -0.134   0.096  1.00  0.00     0.288 C 
HETATM   22  O   UNL     1       2.126  -0.210   0.070  1.00  0.00    -0.262 OA
BRANCH  21  23
HETATM   23  O   UNL     1       0.186  -0.769  -0.872  1.00  0.00    -0.319 OA
BRANCH  23  24
HETATM   24  C   UNL     1      -1.232  -0.643  -1.077  1.00  0.00     0.178 C 
BRANCH  24  25
HETATM   25  C   UNL     1      -1.635  -1.602  -2.198  1.00  0.00     0.026 C 
BRANCH  25  26
HETATM   26  C   UNL     1      -3.154  -1.746  -2.273  1.00  0.00    -0.002 C 
HETATM   27  C   UNL     1      -3.584  -2.767  -3.314  1.00  0.00     0.005 C 
ENDBRANCH  25  26
ENDBRANCH  24  25
ENDBRANCH  23  24
ENDBRANCH  21  23
ENDBRANCH  19  21
ENDBRANCH  18  19
ENDBRANCH   1  18
TORSDOF 10
