REMARK  7 active torsions:
REMARK  status: ('A' for Active; 'I' for Inactive)
REMARK       I    between atoms: N_1  and  C_6 
REMARK    1  A    between atoms: C_3  and  O_9 
REMARK       I    between atoms: C_6  and  N_8 
REMARK    2  A    between atoms: N_8  and  S_13 
REMARK    3  A    between atoms: O_9  and  C_10 
REMARK    4  A    between atoms: C_10  and  C_26 
REMARK    5  A    between atoms: S_13  and  C_16 
REMARK    6  A    between atoms: C_17  and  C_22 
REMARK    7  A    between atoms: C_22  and  O_24 
ROOT
HETATM    1  N   UNL     1      -0.075  -1.334   0.014  1.00  0.00    -0.123 N 
HETATM    2  N   UNL     1       1.242  -0.863   0.004  1.00  0.00    -0.114 NA
HETATM    3  C   UNL     1       1.102   0.424  -0.002  1.00  0.00     0.269 A 
HETATM    4  N   UNL     1      -0.155   0.892   0.001  1.00  0.00    -0.265 N 
HETATM    5  C   UNL     1      -0.966  -0.221   0.010  1.00  0.00     0.356 A 
HETATM    6  C   UNL     1      -0.401  -2.704   0.036  1.00  0.00     0.384 C 
HETATM    7  O   UNL     1      -1.590  -3.030   0.057  1.00  0.00    -0.242 OA
HETATM    8  N   UNL     1       0.666  -3.513   0.035  1.00  0.00    -0.100 NA
HETATM    9  C   UNL     1      -0.637   2.247  -0.001  1.00  0.00     0.165 C 
HETATM   10  O   UNL     1      -2.188  -0.169   0.012  1.00  0.00    -0.244 OA
ENDROOT
BRANCH   8  11
HETATM   11  S   UNL     1       0.350  -5.075  -0.012  1.00  0.00     0.288 S 
HETATM   12  O   UNL     1      -0.189  -5.605   1.239  1.00  0.00    -0.198 OA
HETATM   13  O   UNL     1      -0.255  -5.510  -1.269  1.00  0.00    -0.198 OA
BRANCH  11  14
HETATM   14  C   UNL     1       1.922  -6.004  -0.091  1.00  0.00     0.098 A 
HETATM   15  C   UNL     1       1.974  -7.414  -0.073  1.00  0.00     0.062 A 
HETATM   16  C   UNL     1       3.253  -8.018  -0.137  1.00  0.00     0.019 A 
HETATM   17  C   UNL     1       4.427  -7.267  -0.211  1.00  0.00     0.001 A 
HETATM   18  C   UNL     1       4.355  -5.881  -0.221  1.00  0.00     0.002 A 
HETATM   19  C   UNL     1       3.111  -5.250  -0.161  1.00  0.00     0.026 A 
BRANCH  15  20
HETATM   20  C   UNL     1       0.851  -8.407   0.021  1.00  0.00     0.294 C 
HETATM   21  O   UNL     1       1.063  -9.604   0.204  1.00  0.00    -0.259 OA
BRANCH  20  22
HETATM   22  O   UNL     1      -0.370  -7.891  -0.168  1.00  0.00    -0.322 OA
HETATM   23  C   UNL     1      -1.474  -8.778  -0.042  1.00  0.00     0.213 C 
ENDBRANCH  20  22
ENDBRANCH  15  20
ENDBRANCH  11  14
ENDBRANCH   8  11
BRANCH   3  24
HETATM   24  O   UNL     1       2.102   1.334  -0.011  1.00  0.00    -0.319 OA
BRANCH  24  25
HETATM   25  C   UNL     1       3.421   0.771  -0.011  1.00  0.00     0.178 C 
BRANCH  25  26
HETATM   26  C   UNL     1       4.427   1.915  -0.018  1.00  0.00     0.022 C 
HETATM   27  C   UNL     1       5.854   1.399  -0.021  1.00  0.00     0.007 C 
ENDBRANCH  25  26
ENDBRANCH  24  25
ENDBRANCH   3  24
TORSDOF 7
