REMARK  7 active torsions:
REMARK  status: ('A' for Active; 'I' for Inactive)
REMARK    1  A    between atoms: C_1  and  S_7 
REMARK    2  A    between atoms: C_6  and  C_23 
REMARK    3  A    between atoms: S_7  and  N_10 
REMARK       I    between atoms: N_10  and  C_11 
REMARK       I    between atoms: C_11  and  N_13 
REMARK    4  A    between atoms: N_13  and  C_15 
REMARK    5  A    between atoms: C_17  and  O_20 
REMARK    6  A    between atoms: C_23  and  C_24 
REMARK    7  A    between atoms: C_24  and  C_25 
ROOT
HETATM    1  S   UNL     1      -3.334  -0.057   0.463  1.00  0.00     0.267 S 
HETATM    2  O   UNL     1      -3.939  -0.264  -0.836  1.00  0.00    -0.200 OA
HETATM    3  O   UNL     1      -3.606   1.180   1.171  1.00  0.00    -0.200 OA
ENDROOT
BRANCH   1   4
HETATM    4  C   UNL     1      -1.571  -0.208   0.250  1.00  0.00     0.086 A 
HETATM    5  C   UNL     1      -0.856   0.988   0.505  1.00  0.00     0.026 A 
HETATM    6  C   UNL     1       0.521   1.074   0.318  1.00  0.00     0.002 A 
HETATM    7  C   UNL     1       1.215  -0.039  -0.119  1.00  0.00     0.001 A 
HETATM    8  C   UNL     1       0.524  -1.221  -0.390  1.00  0.00     0.009 A 
HETATM    9  C   UNL     1      -0.886  -1.340  -0.252  1.00  0.00    -0.035 A 
BRANCH   9  10
HETATM   10  C   UNL     1      -1.409  -2.736  -0.559  1.00  0.00     0.048 C 
BRANCH  10  11
HETATM   11  C   UNL     1      -2.763  -2.955  -1.223  1.00  0.00     0.122 C 
BRANCH  11  12
HETATM   12  C   UNL     1      -3.006  -4.428  -1.475  1.00  0.00     0.388 C 
HETATM   13  F   UNL     1      -2.136  -4.935  -2.370  1.00  0.00    -0.171 F 
HETATM   14  F   UNL     1      -2.893  -5.140  -0.332  1.00  0.00    -0.171 F 
HETATM   15  F   UNL     1      -4.256  -4.629  -1.947  1.00  0.00    -0.171 F 
ENDBRANCH  11  12
ENDBRANCH  10  11
ENDBRANCH   9  10
ENDBRANCH   1   4
BRANCH   1  16
HETATM   16  N   UNL     1      -3.956  -1.212   1.492  1.00  0.00    -0.231 N 
HETATM   17  C   UNL     1      -3.259  -2.221   2.156  1.00  0.00     0.348 C 
HETATM   18  O   UNL     1      -2.088  -2.120   2.450  1.00  0.00    -0.245 OA
HETATM   19  N   UNL     1      -4.088  -3.282   2.323  1.00  0.00    -0.137 N 
HETATM   20  H   UNL     1      -5.014  -3.220   1.938  1.00  0.00     0.189 HD
HETATM   21  H   UNL     1      -4.575  -0.715   2.130  1.00  0.00     0.183 HD
BRANCH  19  22
HETATM   22  C   UNL     1      -3.708  -4.572   2.654  1.00  0.00     0.736 A 
HETATM   23  N   UNL     1      -2.486  -4.841   3.086  1.00  0.00    -0.047 NA
HETATM   24  C   UNL     1      -2.223  -6.132   3.292  1.00  0.00     0.145 A 
HETATM   25  N   UNL     1      -3.084  -7.121   3.075  1.00  0.00    -0.191 NA
HETATM   26  C   UNL     1      -0.856  -6.503   3.773  1.00  0.00     0.094 C 
HETATM   27  C   UNL     1      -4.271  -6.733   2.628  1.00  0.00     0.286 A 
HETATM   28  N   UNL     1      -4.654  -5.476   2.427  1.00  0.00    -0.018 NA
BRANCH  27  29
HETATM   29  O   UNL     1      -5.151  -7.764   2.374  1.00  0.00    -0.324 OA
HETATM   30  C   UNL     1      -6.249  -7.373   1.560  1.00  0.00     0.213 C 
ENDBRANCH  27  29
ENDBRANCH  19  22
ENDBRANCH   1  16
TORSDOF 7
