REMARK  2 active torsions:
REMARK  status: ('A' for Active; 'I' for Inactive)
REMARK    1  A    between atoms: N_2  and  C_10 
REMARK    2  A    between atoms: C_6  and  N_8 
ROOT
HETATM    1  N   UNL     1      -0.770   1.024   0.043  1.00  0.00    -0.175 NA
HETATM    2  N   UNL     1      -1.373  -0.219  -0.008  1.00  0.00    -0.197 N 
HETATM    3  C   UNL     1      -0.631  -1.414   0.002  1.00  0.00     0.292 A 
HETATM    4  C   UNL     1       0.515   1.082   0.107  1.00  0.00     0.164 A 
HETATM    5  C   UNL     1       0.856  -1.249   0.075  1.00  0.00     0.126 A 
HETATM    6  C   UNL     1       1.458  -0.054   0.121  1.00  0.00     0.052 A 
HETATM    7  O   UNL     1      -1.089  -2.555  -0.055  1.00  0.00    -0.264 OA
HETATM    8 CL   UNL     1       1.812  -2.700   0.073  1.00  0.00    -0.076 Cl
ENDROOT
BRANCH   2   9
HETATM    9  C   UNL     1      -2.815  -0.152  -0.073  1.00  0.00     0.062 A 
HETATM   10  C   UNL     1      -3.641  -1.286  -0.090  1.00  0.00     0.032 A 
HETATM   11  C   UNL     1      -5.037  -1.177  -0.159  1.00  0.00     0.002 A 
HETATM   12  C   UNL     1      -5.644   0.073  -0.212  1.00  0.00     0.000 A 
HETATM   13  C   UNL     1      -4.855   1.215  -0.192  1.00  0.00     0.002 A 
HETATM   14  C   UNL     1      -3.461   1.101  -0.122  1.00  0.00     0.032 A 
ENDBRANCH   2   9
BRANCH   6  15
HETATM   15  N   UNL     1       2.815   0.221   0.182  1.00  0.00    -0.300 NA
HETATM   16  H   UNL     1       3.097   1.048  -0.341  1.00  0.00     0.124 HD
HETATM   17  H   UNL     1       3.391  -0.591  -0.044  1.00  0.00     0.124 HD
ENDBRANCH   6  15
TORSDOF 2
