REMARK  2 active torsions:
REMARK  status: ('A' for Active; 'I' for Inactive)
REMARK    1  A    between atoms: C_3  and  N_7 
REMARK    2  A    between atoms: N_7  and  C_10 
ROOT
HETATM    1  N   UNL     1      -0.417   1.328   0.007  1.00  0.00    -0.068 NA
HETATM    2  N   UNL     1      -0.705  -1.015   0.026  1.00  0.00    -0.068 NA
HETATM    3  C   UNL     1      -1.195   0.237   0.019  1.00  0.00     0.727 A 
HETATM    4  C   UNL     1       1.500  -0.090   0.007  1.00  0.00     0.054 A 
HETATM    5  C   UNL     1       0.919   1.158   0.001  1.00  0.00     0.051 A 
HETATM    6  C   UNL     1       0.637  -1.164   0.021  1.00  0.00     0.051 A 
HETATM    7  C   UNL     1       1.175  -2.563   0.023  1.00  0.00     0.071 C 
HETATM    8  C   UNL     1       1.763   2.395  -0.021  1.00  0.00     0.071 C 
ENDROOT
BRANCH   3   9
HETATM    9  N   UNL     1      -2.584   0.330  -0.011  1.00  0.00    -0.188 N 
HETATM   10  H   UNL     1      -2.977  -0.598  -0.054  1.00  0.00     0.184 HD
BRANCH   9  11
HETATM   11  C   UNL     1      -3.474   1.408  -0.031  1.00  0.00     0.049 A 
HETATM   12  C   UNL     1      -4.823   1.165  -0.339  1.00  0.00     0.030 A 
HETATM   13  C   UNL     1      -5.751   2.208  -0.422  1.00  0.00     0.002 A 
HETATM   14  C   UNL     1      -5.346   3.520  -0.197  1.00  0.00     0.000 A 
HETATM   15  C   UNL     1      -4.016   3.783   0.113  1.00  0.00     0.002 A 
HETATM   16  C   UNL     1      -3.092   2.736   0.191  1.00  0.00     0.030 A 
ENDBRANCH   9  11
ENDBRANCH   3   9
TORSDOF 2
