REMARK  8 active torsions:
REMARK  status: ('A' for Active; 'I' for Inactive)
REMARK    1  A    between atoms: C_1  and  O_3 
REMARK    2  A    between atoms: C_1  and  C_4 
REMARK    3  A    between atoms: O_3  and  C_25 
REMARK    4  A    between atoms: C_4  and  O_5 
REMARK    5  A    between atoms: O_5  and  C_6 
REMARK    6  A    between atoms: C_10  and  C_17 
REMARK    7  A    between atoms: C_16  and  O_19 
REMARK    8  A    between atoms: O_19  and  C_20 
ROOT
HETATM    1  C   UNL     1       4.462   1.408  -0.984  1.00  0.00     0.092 A 
HETATM    2  C   UNL     1       5.456   0.422  -1.013  1.00  0.00     0.070 A 
HETATM    3  C   UNL     1       4.840   2.757  -1.166  1.00  0.00     0.055 A 
HETATM    4  C   UNL     1       6.791   0.793  -1.194  1.00  0.00     0.070 A 
HETATM    5  C   UNL     1       6.180   3.147  -1.335  1.00  0.00     0.037 A 
HETATM    6  C   UNL     1       7.143   2.132  -1.343  1.00  0.00     0.130 A 
HETATM    7 CL   UNL     1       5.175  -1.278  -0.908  1.00  0.00    -0.081 Cl
HETATM    8  F   UNL     1       8.449   2.404  -1.490  1.00  0.00    -0.205 F 
ENDROOT
BRANCH   5   9
HETATM    9  C   UNL     1       6.567   4.552  -1.537  1.00  0.00     0.116 A 
HETATM   10  N   UNL     1       7.639   4.848  -2.287  1.00  0.00    -0.168 NA
HETATM   11  N   UNL     1       7.770   6.187  -2.237  1.00  0.00    -0.251 N 
HETATM   12  C   UNL     1       6.753   6.807  -1.542  1.00  0.00     0.190 A 
HETATM   13  C   UNL     1       8.961   6.725  -2.851  1.00  0.00     0.182 C 
HETATM   14  C   UNL     1       5.985   5.759  -1.058  1.00  0.00     0.118 A 
HETATM   15 CL   UNL     1       4.627   5.934  -0.043  1.00  0.00    -0.077 Cl
BRANCH  12  16
HETATM   16  O   UNL     1       6.525   8.114  -1.333  1.00  0.00    -0.270 OA
BRANCH  16  17
HETATM   17  C   UNL     1       7.333   9.120  -1.904  1.00  0.00     0.506 C 
HETATM   18  F   UNL     1       7.343   8.989  -3.251  1.00  0.00    -0.184 F 
HETATM   19  F   UNL     1       6.748  10.314  -1.635  1.00  0.00    -0.184 F 
ENDBRANCH  16  17
ENDBRANCH  12  16
ENDBRANCH   5   9
BRANCH   1  20
HETATM   20  O   UNL     1       3.104   1.265  -0.883  1.00  0.00    -0.340 OA
BRANCH  20  21
HETATM   21  C   UNL     1       2.558   0.178  -0.145  1.00  0.00     0.286 C 
BRANCH  21  22
HETATM   22  C   UNL     1       1.050   0.347   0.005  1.00  0.00     0.283 C 
HETATM   23  O   UNL     1       0.387   1.288  -0.411  1.00  0.00    -0.263 OA
BRANCH  22  24
HETATM   24  O   UNL     1       0.530  -0.748   0.641  1.00  0.00    -0.320 OA
BRANCH  24  25
HETATM   25  C   UNL     1      -0.903  -0.768   0.692  1.00  0.00     0.174 C 
HETATM   26  C   UNL     1      -1.343  -1.993   1.470  1.00  0.00     0.034 C 
ENDBRANCH  24  25
ENDBRANCH  22  24
ENDBRANCH  21  22
ENDBRANCH  20  21
ENDBRANCH   1  20
TORSDOF 8
