REMARK  2 active torsions:
REMARK  status: ('A' for Active; 'I' for Inactive)
REMARK    1  A    between atoms: C_1  and  O_3 
REMARK    2  A    between atoms: O_3  and  C_7 
ROOT
HETATM    1  C   UNL     1       1.400  -1.242  -0.098  1.00  0.00     0.091 A 
HETATM    2  C   UNL     1       0.065  -0.725   0.026  1.00  0.00     0.048 A 
HETATM    3  C   UNL     1       2.443  -0.392  -0.451  1.00  0.00     0.057 A 
HETATM    4  C   UNL     1      -0.063   0.680  -0.100  1.00  0.00     0.072 A 
HETATM    5  C   UNL     1      -1.147  -1.462   0.234  1.00  0.00     0.051 A 
HETATM    6  C   UNL     1       2.183   0.958  -0.541  1.00  0.00     0.120 A 
HETATM    7  C   UNL     1      -1.303   1.288   0.013  1.00  0.00     0.056 A 
HETATM    8  N   UNL     1       0.967   1.497  -0.348  1.00  0.00    -0.260 NA
HETATM    9  C   UNL     1      -2.390  -0.829   0.319  1.00  0.00     0.048 A 
HETATM   10 CL   UNL     1      -1.211  -3.194   0.333  1.00  0.00    -0.083 Cl
HETATM   11  C   UNL     1      -2.459   0.547   0.215  1.00  0.00     0.037 A 
HETATM   12 CL   UNL     1      -3.982   1.339   0.312  1.00  0.00    -0.084 Cl
ENDROOT
BRANCH   1  13
HETATM   13  O   UNL     1       1.540  -2.592   0.139  1.00  0.00    -0.310 OA
BRANCH  13  14
HETATM   14  C   UNL     1       2.707  -3.302   0.047  1.00  0.00     0.076 A 
HETATM   15  C   UNL     1       3.949  -2.912   0.551  1.00  0.00     0.040 A 
HETATM   16  C   UNL     1       5.052  -3.764   0.425  1.00  0.00     0.045 A 
HETATM   17  C   UNL     1       4.889  -5.029  -0.130  1.00  0.00     0.116 A 
HETATM   18  C   UNL     1       3.643  -5.462  -0.560  1.00  0.00     0.045 A 
HETATM   19  F   UNL     1       5.943  -5.849  -0.227  1.00  0.00    -0.206 F 
HETATM   20  C   UNL     1       2.554  -4.595  -0.473  1.00  0.00     0.040 A 
ENDBRANCH  13  14
ENDBRANCH   1  13
TORSDOF 2
