REMARK  5 active torsions:
REMARK  status: ('A' for Active; 'I' for Inactive)
REMARK    1  A    between atoms: C_5  and  C_16 
REMARK    2  A    between atoms: C_13  and  O_18 
REMARK    3  A    between atoms: O_18  and  C_19 
REMARK    4  A    between atoms: C_19  and  C_21 
REMARK    5  A    between atoms: C_21  and  C_25 
ROOT
HETATM    1  C   UNL     1       5.881   1.276  -0.955  1.00  0.00     0.046 C 
HETATM    2  C   UNL     1       5.129  -0.038  -0.662  1.00  0.00     0.121 A 
HETATM    3  C   UNL     1       7.353   1.227  -0.548  1.00  0.00     0.003 C 
HETATM    4  C   UNL     1       5.896  -1.340  -0.965  1.00  0.00     0.046 C 
HETATM    5  C   UNL     1       8.045  -0.024  -1.072  1.00  0.00     0.000 C 
HETATM    6  C   UNL     1       7.363  -1.279  -0.544  1.00  0.00     0.003 C 
HETATM    7  C   UNL     1       3.715  -0.050  -1.164  1.00  0.00     0.109 A 
HETATM    8  O   UNL     1       4.942  -0.039   0.779  1.00  0.00    -0.299 OA
HETATM    9  C   UNL     1       3.621  -0.009   1.085  1.00  0.00     0.298 A 
HETATM   10  C   UNL     1       2.836  -0.028  -0.158  1.00  0.00     0.082 A 
HETATM   11  O   UNL     1       3.163   0.022   2.213  1.00  0.00    -0.259 OA
ENDROOT
BRANCH   7  12
HETATM   12  O   UNL     1       3.311  -0.088  -2.528  1.00  0.00    -0.278 OA
BRANCH  12  13
HETATM   13  C   UNL     1       4.143  -0.033  -3.617  1.00  0.00     0.272 C 
HETATM   14  O   UNL     1       5.364   0.021  -3.569  1.00  0.00    -0.264 OA
BRANCH  13  15
HETATM   15  C   UNL     1       3.359  -0.053  -4.937  1.00  0.00     0.041 C 
HETATM   16  C   UNL     1       2.520  -1.334  -5.024  1.00  0.00     0.025 C 
HETATM   17  C   UNL     1       4.394  -0.091  -6.089  1.00  0.00     0.025 C 
BRANCH  15  18
HETATM   18  C   UNL     1       2.525   1.239  -5.118  1.00  0.00     0.014 C 
HETATM   19  C   UNL     1       1.275   1.380  -4.259  1.00  0.00     0.006 C 
ENDBRANCH  15  18
ENDBRANCH  13  15
ENDBRANCH  12  13
ENDBRANCH   7  12
BRANCH  10  20
HETATM   20  C   UNL     1       1.380  -0.023  -0.194  1.00  0.00    -0.014 A 
HETATM   21  C   UNL     1       0.680   1.190  -0.168  1.00  0.00     0.036 A 
HETATM   22  C   UNL     1      -0.715   1.189  -0.125  1.00  0.00     0.036 A 
HETATM   23  C   UNL     1      -1.425  -0.008  -0.107  1.00  0.00     0.047 A 
HETATM   24 CL   UNL     1      -1.565   2.685  -0.082  1.00  0.00    -0.084 Cl
HETATM   25  C   UNL     1      -0.727  -1.212  -0.138  1.00  0.00     0.036 A 
HETATM   26  C   UNL     1       0.668  -1.228  -0.185  1.00  0.00     0.036 A 
HETATM   27 CL   UNL     1      -1.593  -2.699  -0.105  1.00  0.00    -0.084 Cl
ENDBRANCH  10  20
TORSDOF 5
