REMARK  6 active torsions:
REMARK  status: ('A' for Active; 'I' for Inactive)
REMARK    1  A    between atoms: P_1  and  O_3 
REMARK    2  A    between atoms: P_1  and  S_4 
REMARK    3  A    between atoms: P_1  and  N_5 
REMARK    4  A    between atoms: O_3  and  C_11 
REMARK    5  A    between atoms: S_4  and  C_13 
REMARK    6  A    between atoms: C_13  and  C_14 
ROOT
HETATM    1  P   UNL     1       1.047  -0.087   0.011  1.00  0.00     0.357 P 
HETATM    2  O   UNL     1       0.989  -0.062  -1.512  1.00  0.00    -0.254 OA
ENDROOT
BRANCH   1   3
HETATM    3  O   UNL     1       1.109  -1.659   0.633  1.00  0.00    -0.311 OA
BRANCH   3   4
HETATM    4  C   UNL     1       2.129  -2.065   1.565  1.00  0.00     0.174 C 
HETATM    5  C   UNL     1       1.843  -3.368   2.291  1.00  0.00     0.034 C 
ENDBRANCH   3   4
ENDBRANCH   1   3
BRANCH   1   6
HETATM    6  S   UNL     1      -1.073  -0.087   0.011  1.00  0.00    -0.047 SA
BRANCH   6   7
HETATM    7  C   UNL     1      -1.810  -1.322   1.122  1.00  0.00     0.054 C 
HETATM    8  C   UNL     1      -3.256  -1.526   0.649  1.00  0.00     0.022 C 
BRANCH   7   9
HETATM    9  C   UNL     1      -1.853  -0.881   2.596  1.00  0.00     0.011 C 
HETATM   10  C   UNL     1      -0.523  -0.937   3.316  1.00  0.00     0.006 C 
ENDBRANCH   7   9
ENDBRANCH   6   7
ENDBRANCH   1   6
BRANCH   1  11
HETATM   11  N   UNL     1       2.827  -0.087   0.011  1.00  0.00    -0.259 N 
HETATM   12  C   UNL     1       3.514  -0.905  -0.874  1.00  0.00     0.289 C 
HETATM   13  S   UNL     1       5.162  -0.304  -1.052  1.00  0.00    -0.067 SA
HETATM   14  O   UNL     1       3.160  -1.935  -1.424  1.00  0.00    -0.260 OA
HETATM   15  C   UNL     1       4.639   1.372  -0.673  1.00  0.00     0.104 C 
HETATM   16  C   UNL     1       3.511   1.153   0.318  1.00  0.00     0.148 C 
ENDBRANCH   1  11
TORSDOF 6
