REMARK  5 active torsions:
REMARK  status: ('A' for Active; 'I' for Inactive)
REMARK    1  A    between atoms: C_1  and  C_3 
REMARK       I    between atoms: C_1  and  N_11 
REMARK    2  A    between atoms: N_11  and  N_12 
REMARK    3  A    between atoms: N_11  and  C_13 
REMARK       I    between atoms: N_12  and  C_17 
REMARK    4  A    between atoms: C_17  and  C_19 
REMARK    5  A    between atoms: C_24  and  C_25 
ROOT
HETATM    1  C   UNL     1       0.879  -0.093  -0.269  1.00  0.00     0.273 C 
HETATM    2  O   UNL     1       0.227  -1.131  -0.108  1.00  0.00    -0.266 OA
HETATM    3  N   UNL     1       2.275  -0.047  -0.067  1.00  0.00    -0.245 N 
ENDROOT
BRANCH   3   4
HETATM    4  N   UNL     1       2.818  -1.281   0.416  1.00  0.00    -0.260 N 
HETATM    5  C   UNL     1       2.554  -1.701   1.711  1.00  0.00     0.270 C 
HETATM    6  O   UNL     1       1.952  -1.085   2.571  1.00  0.00    -0.266 OA
HETATM    7  H   UNL     1       3.135  -1.944  -0.281  1.00  0.00     0.190 HD
BRANCH   5   8
HETATM    8  C   UNL     1       3.207  -2.987   2.049  1.00  0.00     0.033 A 
HETATM    9  C   UNL     1       4.468  -2.921   2.638  1.00  0.00     0.017 A 
HETATM   10  C   UNL     1       5.122  -4.096   3.009  1.00  0.00     0.008 A 
HETATM   11  C   UNL     1       4.527  -5.353   2.804  1.00  0.00    -0.059 A 
HETATM   12  C   UNL     1       3.261  -5.402   2.197  1.00  0.00     0.008 A 
HETATM   13  C   UNL     1       2.597  -4.222   1.819  1.00  0.00     0.017 A 
BRANCH  11  14
HETATM   14  C   UNL     1       5.295  -6.566   3.286  1.00  0.00     0.034 C 
HETATM   15  C   UNL     1       4.654  -7.934   3.101  1.00  0.00     0.010 C 
ENDBRANCH  11  14
ENDBRANCH   5   8
ENDBRANCH   3   4
BRANCH   3  16
HETATM   16  C   UNL     1       3.333   0.840  -0.706  1.00  0.00     0.046 C 
HETATM   17  C   UNL     1       3.114   0.901  -2.231  1.00  0.00     0.040 C 
HETATM   18  C   UNL     1       3.366   2.269  -0.126  1.00  0.00     0.040 C 
HETATM   19  C   UNL     1       4.776   0.296  -0.487  1.00  0.00     0.040 C 
ENDBRANCH   3  16
BRANCH   1  20
HETATM   20  C   UNL     1       0.125   1.071  -0.794  1.00  0.00     0.034 C 
HETATM   21  C   UNL     1       0.272   2.362  -0.290  1.00  0.00     0.024 C 
HETATM   22  C   UNL     1      -0.337   3.447  -0.938  1.00  0.00    -0.061 C 
HETATM   23  C   UNL     1      -1.230   3.203  -1.989  1.00  0.00     0.013 C 
HETATM   24  C   UNL     1      -0.008   4.861  -0.555  1.00  0.00     0.048 C 
HETATM   25  C   UNL     1      -1.505   1.895  -2.404  1.00  0.00    -0.061 C 
HETATM   26  C   UNL     1      -0.801   0.836  -1.820  1.00  0.00     0.024 C 
HETATM   27  C   UNL     1      -2.514   1.643  -3.484  1.00  0.00     0.048 C 
ENDBRANCH   1  20
TORSDOF 5
