REMARK  7 active torsions:
REMARK  status: ('A' for Active; 'I' for Inactive)
REMARK    1  A    between atoms: N_1  and  C_6 
REMARK    2  A    between atoms: C_6  and  C_7 
REMARK    3  A    between atoms: C_7  and  C_8 
REMARK    4  A    between atoms: C_7  and  C_9 
REMARK    5  A    between atoms: C_8  and  O_17 
REMARK    6  A    between atoms: O_17  and  C_18 
REMARK    7  A    between atoms: C_18  and  C_19 
ROOT
HETATM    1  C   UNL     1       1.695  -2.942  -0.106  1.00  0.00     0.064 C 
ENDROOT
BRANCH   1   2
HETATM    2  C   UNL     1       1.981  -1.450   0.211  1.00  0.00     0.163 C 
BRANCH   2   3
HETATM    3  N   UNL     1       0.839  -0.568   0.313  1.00  0.00    -0.262 N 
HETATM    4  N   UNL     1      -0.256  -0.894   1.019  1.00  0.00    -0.165 NA
HETATM    5  C   UNL     1      -1.043   0.159   0.775  1.00  0.00     0.256 A 
HETATM    6  N   UNL     1      -0.464   1.167   0.057  1.00  0.00    -0.234 NA
HETATM    7  C   UNL     1       0.731   0.687  -0.205  1.00  0.00     0.229 A 
ENDBRANCH   2   3
ENDBRANCH   1   2
BRANCH   1   8
HETATM    8  C   UNL     1       1.040  -3.138  -1.496  1.00  0.00     0.185 C 
BRANCH   8   9
HETATM    9  O   UNL     1      -0.190  -2.439  -1.577  1.00  0.00    -0.321 OA
BRANCH   9  10
HETATM   10  C   UNL     1      -0.992  -2.771  -2.707  1.00  0.00     0.413 C 
HETATM   11  F   UNL     1      -1.263  -4.102  -2.644  1.00  0.00    -0.169 F 
HETATM   12  F   UNL     1      -2.176  -2.129  -2.536  1.00  0.00    -0.169 F 
BRANCH  10  13
HETATM   13  C   UNL     1      -0.375  -2.415  -4.066  1.00  0.00     0.455 C 
HETATM   14  F   UNL     1      -1.257  -2.604  -5.082  1.00  0.00    -0.205 F 
HETATM   15  F   UNL     1       0.004  -1.110  -4.114  1.00  0.00    -0.205 F 
ENDBRANCH  10  13
ENDBRANCH   9  10
ENDBRANCH   8   9
ENDBRANCH   1   8
BRANCH   1  16
HETATM   16  C   UNL     1       2.952  -3.829  -0.043  1.00  0.00    -0.029 A 
HETATM   17  C   UNL     1       2.866  -5.215   0.215  1.00  0.00     0.042 A 
HETATM   18  C   UNL     1       4.002  -6.033   0.171  1.00  0.00     0.048 A 
HETATM   19 CL   UNL     1       1.364  -5.994   0.574  1.00  0.00    -0.084 Cl
HETATM   20  C   UNL     1       5.243  -5.481  -0.117  1.00  0.00     0.035 A 
HETATM   21  C   UNL     1       5.363  -4.117  -0.353  1.00  0.00     0.024 A 
HETATM   22 CL   UNL     1       6.636  -6.486  -0.196  1.00  0.00    -0.084 Cl
HETATM   23  C   UNL     1       4.229  -3.300  -0.323  1.00  0.00     0.011 A 
ENDBRANCH   1  16
TORSDOF 7
