REMARK  3 active torsions:
REMARK  status: ('A' for Active; 'I' for Inactive)
REMARK    1  A    between atoms: N_3  and  C_8 
REMARK    2  A    between atoms: N_7  and  N_16 
REMARK    3  A    between atoms: C_8  and  C_13 
ROOT
HETATM    1  O   UNL     1       0.723   1.092  -0.232  1.00  0.00    -0.352 OA
HETATM    2  C   UNL     1       1.289   0.045   0.526  1.00  0.00     0.314 C 
HETATM    3  N   UNL     1       0.633  -1.199   0.194  1.00  0.00    -0.188 N 
HETATM    4  C   UNL     1      -0.743  -1.233   0.370  1.00  0.00     0.725 C 
HETATM    5  N   UNL     1      -1.331  -0.045  -0.026  1.00  0.00    -0.198 N 
HETATM    6  C   UNL     1      -0.636   1.215   0.143  1.00  0.00     0.313 C 
HETATM    7  N   UNL     1      -1.274  -2.338   0.799  1.00  0.00     0.083 NA
HETATM    8  C   UNL     1      -2.445  -0.006  -0.966  1.00  0.00     0.171 C 
ENDROOT
BRANCH   3   9
HETATM    9  C   UNL     1       1.134  -1.971  -0.959  1.00  0.00     0.191 C 
BRANCH   9  10
HETATM   10  C   UNL     1       2.572  -1.843  -1.360  1.00  0.00     0.021 A 
HETATM   11  S   UNL     1       3.099  -0.597  -2.431  1.00  0.00    -0.060 SA
HETATM   12  C   UNL     1       4.691  -1.159  -2.259  1.00  0.00     0.167 A 
HETATM   13  N   UNL     1       4.875  -2.235  -1.535  1.00  0.00    -0.240 NA
HETATM   14 CL   UNL     1       5.982  -0.318  -3.014  1.00  0.00    -0.054 Cl
HETATM   15  C   UNL     1       3.654  -2.639  -1.029  1.00  0.00     0.135 A 
ENDBRANCH   9  10
ENDBRANCH   3   9
BRANCH   7  16
HETATM   16  N   UNL     1      -2.583  -2.334   1.086  1.00  0.00     0.001 N 
HETATM   17  O   UNL     1      -3.058  -1.469   1.838  1.00  0.00    -0.515 OA
HETATM   18  O   UNL     1      -3.272  -3.251   0.612  1.00  0.00    -0.515 OA
ENDBRANCH   7  16
TORSDOF 3
