REMARK  2 active torsions:
REMARK  status: ('A' for Active; 'I' for Inactive)
REMARK    1  A    between atoms: N_3  and  C_7 
REMARK    2  A    between atoms: C_7  and  C_8 
ROOT
HETATM    1  S   UNL     1      -1.325  -0.939  -0.244  1.00  0.00    -0.090 SA
HETATM    2  C   UNL     1       0.350  -1.135   0.333  1.00  0.00     0.176 C 
HETATM    3  N   UNL     1       0.993   0.089   0.280  1.00  0.00    -0.355 N 
HETATM    4  C   UNL     1       0.126   1.217  -0.103  1.00  0.00     0.136 C 
HETATM    5  C   UNL     1      -1.314   0.815   0.169  1.00  0.00     0.102 C 
HETATM    6  N   UNL     1       0.818  -2.258   0.753  1.00  0.00    -0.149 NA
HETATM    7  C   UNL     1       0.089  -3.375   0.662  1.00  0.00     0.208 C 
HETATM    8  N   UNL     1      -0.501  -4.366   0.554  1.00  0.00    -0.170 NA
ENDROOT
BRANCH   3   9
HETATM    9  C   UNL     1       2.423   0.416   0.257  1.00  0.00     0.165 C 
BRANCH   9  10
HETATM   10  C   UNL     1       3.509  -0.616   0.429  1.00  0.00    -0.023 C 
HETATM   11  C   UNL     1       4.707  -0.215   1.031  1.00  0.00     0.127 C 
HETATM   12  N   UNL     1       5.780  -1.010   1.245  1.00  0.00    -0.248 NA
HETATM   13  C   UNL     1       5.659  -2.288   0.843  1.00  0.00     0.125 C 
HETATM   14  C   UNL     1       4.559  -2.784   0.175  1.00  0.00     0.045 C 
HETATM   15 CL   UNL     1       7.008  -3.285   1.194  1.00  0.00    -0.062 Cl
HETATM   16  C   UNL     1       3.502  -1.912  -0.087  1.00  0.00     0.013 C 
ENDBRANCH   9  10
ENDBRANCH   3   9
TORSDOF 2
