REMARK  2 active torsions:
REMARK  status: ('A' for Active; 'I' for Inactive)
REMARK    1  A    between atoms: C_1  and  O_6 
REMARK    2  A    between atoms: C_2  and  C_5 
ROOT
HETATM    1  C   UNL     1      -0.608  -1.247  -0.295  1.00  0.00     0.072 A 
HETATM    2  C   UNL     1      -1.408  -0.106  -0.112  1.00  0.00    -0.022 A 
HETATM    3  C   UNL     1      -0.737   1.113   0.095  1.00  0.00     0.011 A 
HETATM    4  C   UNL     1       0.788  -1.179  -0.267  1.00  0.00     0.043 A 
HETATM    5  C   UNL     1       0.662   1.187   0.111  1.00  0.00     0.007 A 
HETATM    6  C   UNL     1       1.436   0.040  -0.058  1.00  0.00    -0.059 A 
HETATM    7  C   UNL     1       2.933   0.128  -0.062  1.00  0.00     0.048 C 
ENDROOT
BRANCH   2   8
HETATM    8  C   UNL     1      -2.931  -0.179  -0.115  1.00  0.00     0.013 C 
HETATM    9  C   UNL     1      -3.444  -0.810   1.185  1.00  0.00     0.015 C 
HETATM   10  C   UNL     1      -3.655   1.156  -0.343  1.00  0.00     0.015 C 
ENDBRANCH   2   8
BRANCH   1  11
HETATM   11  O   UNL     1      -1.115  -2.499  -0.517  1.00  0.00    -0.360 OA
HETATM   12  H   UNL     1      -2.078  -2.452  -0.599  1.00  0.00     0.217 HD
ENDBRANCH   1  11
TORSDOF 2
