REMARK  6 active torsions:
REMARK  status: ('A' for Active; 'I' for Inactive)
REMARK    1  A    between atoms: C_1  and  C_10 
REMARK    2  A    between atoms: C_2  and  O_16 
REMARK    3  A    between atoms: C_4  and  C_5 
REMARK    4  A    between atoms: C_10  and  C_20 
REMARK    5  A    between atoms: N_14  and  O_17 
REMARK    6  A    between atoms: O_17  and  C_22 
ROOT
HETATM    1  C   UNL     1      -0.477  -1.393   0.098  1.00  0.00     0.066 C 
HETATM    2  C   UNL     1      -1.192  -0.331   0.529  1.00  0.00     0.059 C 
HETATM    3  C   UNL     1       0.979  -1.123  -0.186  1.00  0.00     0.164 C 
HETATM    4  C   UNL     1       0.654   1.420  -0.009  1.00  0.00     0.033 C 
HETATM    5  C   UNL     1      -0.754   1.112   0.512  1.00  0.00     0.075 C 
HETATM    6  C   UNL     1       1.583   0.225   0.143  1.00  0.00     0.093 C 
HETATM    7  O   UNL     1       1.721  -2.002  -0.609  1.00  0.00    -0.292 OA
ENDROOT
BRANCH   4   8
HETATM    8  C   UNL     1       0.656   2.237  -1.317  1.00  0.00    -0.041 A 
HETATM    9  C   UNL     1       0.842   1.690  -2.614  1.00  0.00    -0.054 A 
HETATM   10  C   UNL     1       0.925   2.544  -3.739  1.00  0.00     0.014 A 
HETATM   11  C   UNL     1       0.976   0.226  -2.926  1.00  0.00     0.049 C 
HETATM   12  C   UNL     1       0.783   3.923  -3.635  1.00  0.00    -0.061 A 
HETATM   13  C   UNL     1       0.538   4.464  -2.379  1.00  0.00     0.014 A 
HETATM   14  C   UNL     1       0.860   4.808  -4.841  1.00  0.00     0.048 C 
HETATM   15  C   UNL     1       0.455   3.652  -1.229  1.00  0.00    -0.054 A 
HETATM   16  C   UNL     1       0.184   4.404   0.055  1.00  0.00     0.049 C 
ENDBRANCH   4   8
BRANCH   2  17
HETATM   17  O   UNL     1      -2.458  -0.435   1.076  1.00  0.00    -0.364 OA
HETATM   18  H   UNL     1      -2.795  -1.335   0.886  1.00  0.00     0.217 HD
ENDBRANCH   2  17
BRANCH   1  19
HETATM   19  C   UNL     1      -1.040  -2.821   0.031  1.00  0.00     0.077 C 
HETATM   20  N   UNL     1      -2.267  -3.216  -0.156  1.00  0.00    -0.138 NA
BRANCH  20  21
HETATM   21  O   UNL     1      -3.202  -2.230  -0.454  1.00  0.00    -0.257 OA
BRANCH  21  22
HETATM   22  C   UNL     1      -4.512  -2.803  -0.334  1.00  0.00     0.199 C 
HETATM   23  C   UNL     1      -5.520  -1.678  -0.202  1.00  0.00     0.036 C 
ENDBRANCH  21  22
ENDBRANCH  20  21
BRANCH  19  24
HETATM   24  C   UNL     1      -0.032  -3.977   0.190  1.00  0.00     0.058 C 
HETATM   25  C   UNL     1      -0.646  -5.372   0.229  1.00  0.00     0.011 C 
ENDBRANCH  19  24
ENDBRANCH   1  19
TORSDOF 6
