REMARK  10 active torsions:
REMARK  status: ('A' for Active; 'I' for Inactive)
REMARK    1  A    between atoms: C_1  and  C_2 
REMARK    2  A    between atoms: C_1  and  O_13 
REMARK    3  A    between atoms: C_2  and  C_3 
REMARK    4  A    between atoms: C_3  and  C_4 
REMARK    5  A    between atoms: C_4  and  C_5 
REMARK    6  A    between atoms: C_5  and  C_6 
REMARK    7  A    between atoms: C_6  and  C_7 
REMARK    8  A    between atoms: C_7  and  C_8 
REMARK    9  A    between atoms: C_8  and  C_9 
REMARK   10  A    between atoms: C_9  and  C_10 
ROOT
HETATM    1  C   UNL     1       0.380  -3.717   0.380  1.00  0.00     0.001 C 
ENDROOT
BRANCH   1   2
HETATM    2  C   UNL     1       1.146  -2.399   0.258  1.00  0.00     0.010 C 
BRANCH   2   3
HETATM    3  C   UNL     1       0.200  -1.205   0.148  1.00  0.00     0.110 C 
BRANCH   3   4
HETATM    4  C   UNL     1       0.956   0.099   0.027  1.00  0.00     0.139 C 
HETATM    5  O   UNL     1       2.171   0.216   0.016  1.00  0.00    -0.650 OA
BRANCH   4   6
HETATM    6  O   UNL     1       0.127   1.165  -0.071  1.00  0.00    -0.776 OA
HETATM    7  H   UNL     1      -0.819   0.929  -0.050  1.00  0.00     0.167 HD
ENDBRANCH   4   6
ENDBRANCH   3   4
ENDBRANCH   2   3
ENDBRANCH   1   2
BRANCH   1   8
HETATM    8  C   UNL     1       1.342  -4.901   0.489  1.00  0.00     0.000 C 
BRANCH   8   9
HETATM    9  C   UNL     1       0.592  -6.227   0.612  1.00  0.00     0.000 C 
BRANCH   9  10
HETATM   10  C   UNL     1       1.567  -7.402   0.721  1.00  0.00     0.000 C 
BRANCH  10  11
HETATM   11  C   UNL     1       0.826  -8.734   0.844  1.00  0.00     0.004 C 
BRANCH  11  12
HETATM   12  C   UNL     1       1.808  -9.905   0.952  1.00  0.00     0.026 C 
BRANCH  12  13
HETATM   13  C   UNL     1       1.098 -11.224   1.074  1.00  0.00    -0.037 C 
HETATM   14  C   UNL     1       1.745 -12.392   1.182  1.00  0.00     0.007 C 
ENDBRANCH  12  13
ENDBRANCH  11  12
ENDBRANCH  10  11
ENDBRANCH   9  10
ENDBRANCH   8   9
ENDBRANCH   1   8
TORSDOF 10
