REMARK  2 active torsions:
REMARK  status: ('A' for Active; 'I' for Inactive)
REMARK    1  A    between atoms: N_1  and  C_7 
REMARK    2  A    between atoms: C_7  and  O_11 
ROOT
HETATM    1  N   UNL     1      -0.694  -0.957  -0.089  1.00  0.00    -0.295 N 
HETATM    2  C   UNL     1       0.623  -0.860  -0.504  1.00  0.00     0.327 C 
HETATM    3  N   UNL     1       1.089   0.374  -0.212  1.00  0.00    -0.277 N 
HETATM    4  C   UNL     1       0.066   1.192   0.145  1.00  0.00     0.253 C 
HETATM    5  C   UNL     1      -1.198   0.344   0.353  1.00  0.00     0.113 C 
HETATM    6  O   UNL     1       1.245  -1.730  -1.097  1.00  0.00    -0.247 OA
HETATM    7  O   UNL     1       0.152   2.404   0.265  1.00  0.00    -0.270 OA
HETATM    8  C   UNL     1      -2.339   0.890  -0.504  1.00  0.00     0.049 C 
HETATM    9  C   UNL     1      -1.550   0.328   1.838  1.00  0.00     0.049 C 
HETATM   10  H   UNL     1       1.999   0.702  -0.486  1.00  0.00     0.173 HD
ENDROOT
BRANCH   1  11
HETATM   11  C   UNL     1      -1.564  -1.998  -0.565  1.00  0.00     0.296 C 
BRANCH  11  12
HETATM   12  O   UNL     1      -0.957  -3.249  -0.334  1.00  0.00    -0.382 OA
HETATM   13  H   UNL     1      -0.065  -3.178  -0.730  1.00  0.00     0.211 HD
ENDBRANCH  11  12
ENDBRANCH   1  11
TORSDOF 2
