REMARK  6 active torsions:
REMARK  status: ('A' for Active; 'I' for Inactive)
REMARK    1  A    between atoms: C_2  and  C_10 
REMARK    2  A    between atoms: C_3  and  C_4 
REMARK    3  A    between atoms: C_4  and  O_9 
REMARK    4  A    between atoms: C_5  and  C_19 
REMARK    5  A    between atoms: C_7  and  O_9 
REMARK    6  A    between atoms: C_17  and  C_19 
ROOT
HETATM    1  C   UNL     1      -1.170  -1.221  -0.989  1.00  0.00     0.265 C 
HETATM    2  O   UNL     1      -2.113  -1.986  -1.089  1.00  0.00    -0.265 OA
ENDROOT
BRANCH   1   3
HETATM    3  C   UNL     1      -0.774  -0.724   0.388  1.00  0.00     0.102 A 
HETATM    4  C   UNL     1      -0.402   0.721   0.746  1.00  0.00    -0.027 A 
HETATM    5  C   UNL     1       0.654  -0.401   0.768  1.00  0.00     0.031 A 
HETATM    6  C   UNL     1      -0.769   1.345   2.076  1.00  0.00     0.016 C 
HETATM    7  C   UNL     1      -0.497   1.780  -0.327  1.00  0.00     0.016 C 
BRANCH   5   8
HETATM    8  C   UNL     1       1.172  -0.913   2.069  1.00  0.00    -0.018 C 
HETATM    9  C   UNL     1       2.417  -1.253   2.469  1.00  0.00    -0.091 C 
HETATM   10  C   UNL     1       3.646  -1.329   1.617  1.00  0.00     0.042 C 
HETATM   11  C   UNL     1       2.701  -1.596   3.911  1.00  0.00     0.042 C 
ENDBRANCH   5   8
ENDBRANCH   1   3
BRANCH   1  12
HETATM   12  O   UNL     1      -0.670  -0.567  -2.075  1.00  0.00    -0.311 OA
BRANCH  12  13
HETATM   13  C   UNL     1       0.508  -0.893  -2.867  1.00  0.00     0.168 C 
HETATM   14  C   UNL     1       1.400   0.336  -2.829  1.00  0.00    -0.044 C 
HETATM   15  C   UNL     1       2.507   0.173  -2.086  1.00  0.00    -0.004 C 
HETATM   16  C   UNL     1       0.942   1.560  -3.554  1.00  0.00     0.047 C 
HETATM   17  C   UNL     1       2.624  -1.308  -1.969  1.00  0.00     0.159 C 
HETATM   18  C   UNL     1       1.384  -2.034  -2.397  1.00  0.00     0.120 C 
HETATM   19  O   UNL     1       3.656  -1.869  -1.629  1.00  0.00    -0.293 OA
BRANCH  15  20
HETATM   20  C   UNL     1       3.529   1.049  -1.421  1.00  0.00     0.069 C 
BRANCH  20  21
HETATM   21  C   UNL     1       3.103   2.458  -1.083  1.00  0.00    -0.032 C 
HETATM   22  C   UNL     1       2.995   2.959   0.159  1.00  0.00     0.007 C 
ENDBRANCH  20  21
ENDBRANCH  15  20
ENDBRANCH  12  13
ENDBRANCH   1  12
TORSDOF 6
