REMARK  7 active torsions:
REMARK  status: ('A' for Active; 'I' for Inactive)
REMARK    1  A    between atoms: C_2  and  C_5 
REMARK    2  A    between atoms: C_3  and  C_4 
REMARK    3  A    between atoms: C_4  and  O_6 
REMARK    4  A    between atoms: O_6  and  C_12 
REMARK    5  A    between atoms: C_7  and  O_14 
REMARK    6  A    between atoms: C_10  and  C_12 
REMARK    7  A    between atoms: O_14  and  C_23 
ROOT
HETATM    1  N   UNL     1       1.393  -2.194  -4.958  1.00  0.00    -0.194 NA
HETATM    2  C   UNL     1       0.954  -1.399  -2.472  1.00  0.00     0.271 C 
HETATM    3  C   UNL     1       1.196  -1.854  -3.868  1.00  0.00     0.097 C 
ENDROOT
BRANCH   2   4
HETATM    4  O   UNL     1      -0.447  -1.045  -2.356  1.00  0.00    -0.296 OA
BRANCH   4   5
HETATM    5  C   UNL     1      -1.135  -0.647  -1.256  1.00  0.00     0.266 C 
HETATM    6  O   UNL     1      -2.359  -0.689  -1.253  1.00  0.00    -0.265 OA
BRANCH   5   7
HETATM    7  C   UNL     1      -0.451  -0.125  -0.041  1.00  0.00     0.102 A 
HETATM    8  C   UNL     1      -0.080   1.360   0.024  1.00  0.00    -0.027 A 
HETATM    9  C   UNL     1       0.985   0.300   0.157  1.00  0.00     0.034 A 
HETATM   10  C   UNL     1      -0.423   2.186   1.236  1.00  0.00     0.016 C 
HETATM   11  C   UNL     1      -0.096   2.163  -1.262  1.00  0.00     0.016 C 
BRANCH   9  12
HETATM   12  C   UNL     1       1.609  -0.062   1.447  1.00  0.00     0.016 C 
HETATM   13  C   UNL     1       2.877   0.153   1.833  1.00  0.00     0.100 C 
HETATM   14 CL   UNL     1       4.019   0.970   0.830  1.00  0.00    -0.071 Cl
HETATM   15 CL   UNL     1       3.435  -0.440   3.356  1.00  0.00    -0.071 Cl
ENDBRANCH   9  12
ENDBRANCH   5   7
ENDBRANCH   4   5
ENDBRANCH   2   4
BRANCH   2  16
HETATM   16  C   UNL     1       1.339  -2.495  -1.494  1.00  0.00    -0.012 A 
HETATM   17  C   UNL     1       0.453  -3.566  -1.320  1.00  0.00     0.051 A 
HETATM   18  C   UNL     1       0.765  -4.678  -0.544  1.00  0.00     0.115 A 
HETATM   19  C   UNL     1       1.944  -4.642   0.197  1.00  0.00     0.150 A 
HETATM   20  C   UNL     1       2.831  -3.566   0.081  1.00  0.00     0.046 A 
HETATM   21  F   UNL     1       2.252  -5.640   1.038  1.00  0.00    -0.203 F 
HETATM   22  C   UNL     1       2.552  -2.514  -0.799  1.00  0.00     0.014 A 
BRANCH  18  23
HETATM   23  O   UNL     1      -0.088  -5.758  -0.433  1.00  0.00    -0.308 OA
BRANCH  23  24
HETATM   24  C   UNL     1      -0.500  -6.358  -1.611  1.00  0.00     0.076 C 
HETATM   25  C   UNL     1      -0.100  -7.673  -1.849  1.00  0.00     0.037 C 
HETATM   26  C   UNL     1      -0.517  -8.334  -3.012  1.00  0.00     0.003 C 
HETATM   27  C   UNL     1      -1.309  -7.675  -3.953  1.00  0.00     0.000 C 
HETATM   28  C   UNL     1      -1.738  -6.377  -3.704  1.00  0.00     0.003 C 
HETATM   29  C   UNL     1      -1.383  -5.750  -2.510  1.00  0.00     0.037 C 
ENDBRANCH  23  24
ENDBRANCH  18  23
ENDBRANCH   2  16
TORSDOF 7
