REMARK  7 active torsions:
REMARK  status: ('A' for Active; 'I' for Inactive)
REMARK    1  A    between atoms: C_1  and  C_2 
REMARK    2  A    between atoms: C_1  and  N_9 
REMARK    3  A    between atoms: C_2  and  C_3 
REMARK    4  A    between atoms: C_3  and  C_4 
REMARK    5  A    between atoms: C_4  and  C_5 
REMARK    6  A    between atoms: C_5  and  C_6 
REMARK    7  A    between atoms: C_6  and  C_7 
ROOT
HETATM    1  C   UNL     1      -1.006  -0.294   1.492  1.00  0.00     0.002 C 
ENDROOT
BRANCH   1   2
HETATM    2  C   UNL     1       0.525  -0.243   1.504  1.00  0.00     0.030 C 
BRANCH   2   3
HETATM    3  C   UNL     1       1.081   0.151   0.130  1.00  0.00     0.271 C 
BRANCH   3   4
HETATM    4  N   UNL     1       2.553   0.119   0.068  1.00  0.00     0.080 N 
HETATM    5  C   UNL     1       2.998   0.319  -1.315  1.00  0.00     0.309 C 
HETATM    6  C   UNL     1       3.167   1.131   0.931  1.00  0.00     0.309 C 
ENDBRANCH   3   4
ENDBRANCH   2   3
ENDBRANCH   1   2
BRANCH   1   7
HETATM    7  C   UNL     1      -1.555  -0.625   2.881  1.00  0.00     0.000 C 
BRANCH   7   8
HETATM    8  C   UNL     1      -3.084  -0.632   2.896  1.00  0.00     0.000 C 
BRANCH   8   9
HETATM    9  C   UNL     1      -3.618  -0.938   4.297  1.00  0.00    -0.000 C 
BRANCH   9  10
HETATM   10  C   UNL     1      -5.146  -0.933   4.327  1.00  0.00    -0.005 C 
HETATM   11  C   UNL     1      -5.674  -1.236   5.720  1.00  0.00     0.005 C 
ENDBRANCH   9  10
ENDBRANCH   8   9
ENDBRANCH   7   8
ENDBRANCH   1   7
TORSDOF 7
