REMARK  11 active torsions:
REMARK  status: ('A' for Active; 'I' for Inactive)
REMARK    1  A    between atoms: C_1  and  C_2 
REMARK    2  A    between atoms: C_1  and  O_8 
REMARK    3  A    between atoms: C_2  and  C_3 
REMARK    4  A    between atoms: C_3  and  C_4 
REMARK    5  A    between atoms: C_4  and  C_5 
REMARK    6  A    between atoms: C_5  and  C_6 
REMARK    7  A    between atoms: C_6  and  O_10 
REMARK    8  A    between atoms: O_8  and  C_11 
REMARK    9  A    between atoms: O_10  and  C_15 
REMARK   10  A    between atoms: C_11  and  C_12 
REMARK   11  A    between atoms: C_15  and  C_16 
ROOT
HETATM    1  C   UNL     1       1.464  -1.432  -1.699  1.00  0.00     0.010 C 
ENDROOT
BRANCH   1   2
HETATM    2  C   UNL     1       0.522  -0.663  -0.759  1.00  0.00     0.111 C 
BRANCH   2   3
HETATM    3  C   UNL     1       1.214   0.168   0.291  1.00  0.00     0.258 C 
HETATM    4  O   UNL     1       2.434   0.245   0.383  1.00  0.00    -0.265 OA
BRANCH   3   5
HETATM    5  O   UNL     1       0.400   0.836   1.153  1.00  0.00    -0.321 OA
BRANCH   5   6
HETATM    6  C   UNL     1      -1.041   0.806   1.037  1.00  0.00     0.182 C 
BRANCH   6   7
HETATM    7  C   UNL     1      -1.654   1.723   2.104  1.00  0.00     0.002 C 
HETATM    8  C   UNL     1      -1.206   3.173   1.911  1.00  0.00     0.011 C 
HETATM    9  C   UNL     1      -3.179   1.634   2.080  1.00  0.00     0.011 C 
ENDBRANCH   6   7
ENDBRANCH   5   6
ENDBRANCH   3   5
ENDBRANCH   2   3
ENDBRANCH   1   2
BRANCH   1  10
HETATM   10  C   UNL     1       0.581  -2.251  -2.640  1.00  0.00     0.010 C 
BRANCH  10  11
HETATM   11  C   UNL     1       1.280  -3.051  -3.720  1.00  0.00     0.111 C 
BRANCH  11  12
HETATM   12  C   UNL     1       0.488  -3.921  -4.699  1.00  0.00     0.258 C 
HETATM   13  O   UNL     1       1.128  -4.611  -5.499  1.00  0.00    -0.265 OA
BRANCH  12  14
HETATM   14  O   UNL     1      -0.861  -3.974  -4.754  1.00  0.00    -0.321 OA
BRANCH  14  15
HETATM   15  C   UNL     1      -1.788  -3.234  -3.949  1.00  0.00     0.182 C 
BRANCH  15  16
HETATM   16  C   UNL     1      -3.249  -3.570  -4.266  1.00  0.00     0.002 C 
HETATM   17  C   UNL     1      -3.545  -5.053  -4.055  1.00  0.00     0.011 C 
HETATM   18  C   UNL     1      -4.148  -2.716  -3.365  1.00  0.00     0.011 C 
ENDBRANCH  15  16
ENDBRANCH  14  15
ENDBRANCH  12  14
ENDBRANCH  11  12
ENDBRANCH  10  11
ENDBRANCH   1  10
TORSDOF 11
