REMARK  11 active torsions:
REMARK  status: ('A' for Active; 'I' for Inactive)
REMARK    1  A    between atoms: C_1  and  C_3 
REMARK    2  A    between atoms: C_2  and  C_17 
REMARK    3  A    between atoms: C_3  and  C_5 
REMARK    4  A    between atoms: C_8  and  O_16 
REMARK    5  A    between atoms: O_16  and  C_20 
REMARK    6  A    between atoms: C_17  and  C_25 
REMARK    7  A    between atoms: N_18  and  C_22 
REMARK    8  A    between atoms: N_18  and  C_23 
REMARK    9  A    between atoms: N_18  and  C_24 
REMARK   10  A    between atoms: C_20  and  C_22 
REMARK   11  A    between atoms: C_25  and  C_26 
ROOT
HETATM    1  C   UNL     1       1.092  -3.719   0.139  1.00  0.00     0.018 C 
HETATM    2  C   UNL     1      -0.602  -5.979   0.608  1.00  0.00     0.101 C 
HETATM    3  C   UNL     1       0.672  -6.123   0.022  1.00  0.00     0.042 C 
HETATM    4  C   UNL     1      -0.937  -4.700   1.092  1.00  0.00     0.042 C 
HETATM    5  C   UNL     1      -0.080  -3.600   0.879  1.00  0.00     0.036 C 
HETATM    6  C   UNL     1       1.498  -5.010  -0.225  1.00  0.00     0.036 C 
HETATM    7  I   UNL     1      -2.623  -4.190   2.264  1.00  0.00    -0.042 I 
HETATM    8  I   UNL     1       1.446  -8.010  -0.502  1.00  0.00    -0.042 I 
ENDROOT
BRANCH   1   9
HETATM    9  C   UNL     1       1.963  -2.550  -0.198  1.00  0.00     0.195 C 
HETATM   10  O   UNL     1       3.138  -2.811  -0.486  1.00  0.00    -0.287 OA
BRANCH   9  11
HETATM   11  C   UNL     1       1.494  -1.158  -0.161  1.00  0.00     0.058 A 
HETATM   12  C   UNL     1       2.372  -0.081  -0.022  1.00  0.00     0.069 A 
HETATM   13  O   UNL     1       1.688   1.085   0.112  1.00  0.00    -0.313 OA
HETATM   14  C   UNL     1       0.373   0.807  -0.024  1.00  0.00     0.087 A 
HETATM   15  C   UNL     1       0.186  -0.549  -0.275  1.00  0.00     0.014 A 
HETATM   16  C   UNL     1      -0.642   1.758   0.065  1.00  0.00     0.038 A 
HETATM   17  C   UNL     1      -1.140  -0.959  -0.545  1.00  0.00     0.015 A 
HETATM   18  C   UNL     1      -2.192  -0.033  -0.438  1.00  0.00     0.001 A 
HETATM   19  C   UNL     1      -1.946   1.302  -0.124  1.00  0.00     0.003 A 
BRANCH  12  20
HETATM   20  C   UNL     1       3.864   0.026   0.033  1.00  0.00     0.066 C 
BRANCH  20  21
HETATM   21  C   UNL     1       4.374   1.473   0.022  1.00  0.00     0.006 C 
BRANCH  21  22
HETATM   22  C   UNL     1       5.901   1.536   0.017  1.00  0.00    -0.004 C 
HETATM   23  C   UNL     1       6.396   2.974   0.011  1.00  0.00     0.005 C 
ENDBRANCH  21  22
ENDBRANCH  20  21
ENDBRANCH  12  20
ENDBRANCH   9  11
ENDBRANCH   1   9
BRANCH   2  24
HETATM   24  O   UNL     1      -1.379  -7.117   0.698  1.00  0.00    -0.347 OA
BRANCH  24  25
HETATM   25  C   UNL     1      -2.735  -6.939   0.263  1.00  0.00     0.206 C 
BRANCH  25  26
HETATM   26  C   UNL     1      -3.428  -8.231  -0.210  1.00  0.00     0.299 C 
BRANCH  26  27
HETATM   27  N   UNL     1      -4.909  -8.059  -0.277  1.00  0.00     0.089 N 
BRANCH  27  28
HETATM   28  C   UNL     1      -5.367  -7.387  -1.509  1.00  0.00     0.268 C 
HETATM   29  C   UNL     1      -5.123  -5.881  -1.544  1.00  0.00     0.037 C 
ENDBRANCH  27  28
BRANCH  27  30
HETATM   30  C   UNL     1      -5.588  -9.358  -0.090  1.00  0.00     0.268 C 
HETATM   31  C   UNL     1      -7.090  -9.230   0.178  1.00  0.00     0.037 C 
ENDBRANCH  27  30
ENDBRANCH  26  27
ENDBRANCH  25  26
ENDBRANCH  24  25
ENDBRANCH   2  24
TORSDOF 11
