REMARK  4 active torsions:
REMARK  status: ('A' for Active; 'I' for Inactive)
REMARK    1  A    between atoms: N_1  and  C_2 
REMARK    2  A    between atoms: N_1  and  C_3 
REMARK    3  A    between atoms: C_4  and  C_8 
REMARK    4  A    between atoms: C_5  and  C_8 
ROOT
HETATM    1  C   UNL     1       2.588   0.034   0.016  1.00  0.00     0.039 C 
HETATM    2  C   UNL     1       3.138  -1.240  -0.250  1.00  0.00    -0.021 C 
HETATM    3  C   UNL     1       3.479   1.082   0.333  1.00  0.00     0.030 C 
HETATM    4  C   UNL     1       4.550  -1.358  -0.338  1.00  0.00     0.010 C 
HETATM    5  C   UNL     1       4.864   0.944   0.235  1.00  0.00     0.002 C 
HETATM    6  C   UNL     1       5.402  -0.278  -0.126  1.00  0.00     0.001 C 
ENDROOT
BRANCH   1   7
HETATM    7  N   UNL     1       1.195   0.248   0.104  1.00  0.00    -0.353 N 
HETATM    8  H   UNL     1       0.664  -0.503  -0.388  1.00  0.00     0.166 HD
BRANCH   7   9
HETATM    9  C   UNL     1       0.417   1.436   0.126  1.00  0.00     0.076 C 
HETATM   10  C   UNL     1      -0.737   1.463   0.943  1.00  0.00     0.062 C 
HETATM   11 CL   UNL     1      -1.214   0.089   1.888  1.00  0.00    -0.082 Cl
HETATM   12  C   UNL     1      -1.539   2.607   1.054  1.00  0.00     0.026 C 
HETATM   13  C   UNL     1      -1.220   3.756   0.341  1.00  0.00     0.003 C 
HETATM   14  C   UNL     1      -0.137   3.734  -0.531  1.00  0.00     0.026 C 
HETATM   15  C   UNL     1       0.648   2.576  -0.674  1.00  0.00     0.062 C 
HETATM   16 CL   UNL     1       1.828   2.639  -1.944  1.00  0.00    -0.082 Cl
ENDBRANCH   7   9
ENDBRANCH   1   7
BRANCH   2  17
HETATM   17  C   UNL     1       2.409  -2.570  -0.345  1.00  0.00     0.153 C 
BRANCH  17  18
HETATM   18  C   UNL     1       0.916  -2.769  -0.510  1.00  0.00     0.177 C 
HETATM   19  O   UNL     1       0.263  -1.830  -1.049  1.00  0.00    -0.648 OA
HETATM   20  O   UNL     1       0.488  -3.895  -0.116  1.00  0.00    -0.648 OA
ENDBRANCH  17  18
ENDBRANCH   2  17
TORSDOF 4
