REMARK  7 active torsions:
REMARK  status: ('A' for Active; 'I' for Inactive)
REMARK    1  A    between atoms: C_1  and  C_2 
REMARK    2  A    between atoms: C_2  and  C_3 
REMARK    3  A    between atoms: C_3  and  C_4 
REMARK    4  A    between atoms: C_4  and  C_5 
REMARK    5  A    between atoms: C_5  and  C_6 
REMARK    6  A    between atoms: C_6  and  C_7 
REMARK    7  A    between atoms: C_7  and  O_8 
ROOT
HETATM    1  C   UNL     1       0.613   2.842   0.180  1.00  0.00     0.385 C 
HETATM    2  F   UNL     1       1.217   4.063   0.260  1.00  0.00    -0.192 F 
HETATM    3  F   UNL     1       0.994   2.371  -1.046  1.00  0.00    -0.192 F 
ENDROOT
BRANCH   1   4
HETATM    4  C   UNL     1       1.195   1.927   1.248  1.00  0.00     0.387 C 
HETATM    5  F   UNL     1       0.968   2.498   2.469  1.00  0.00    -0.192 F 
HETATM    6  F   UNL     1       2.558   1.925   1.116  1.00  0.00    -0.192 F 
BRANCH   4   7
HETATM    7  C   UNL     1       0.715   0.489   1.289  1.00  0.00     0.409 C 
HETATM    8  F   UNL     1      -0.619   0.450   1.562  1.00  0.00    -0.189 F 
HETATM    9  F   UNL     1       1.313  -0.135   2.353  1.00  0.00    -0.189 F 
BRANCH   7  10
HETATM   10  C   UNL     1       1.024  -0.288   0.022  1.00  0.00     0.461 C 
HETATM   11  F   UNL     1       0.318   0.171  -1.035  1.00  0.00    -0.165 F 
HETATM   12  F   UNL     1       0.697  -1.597   0.158  1.00  0.00    -0.165 F 
HETATM   13  F   UNL     1       2.331  -0.236  -0.310  1.00  0.00    -0.165 F 
ENDBRANCH   7  10
ENDBRANCH   4   7
ENDBRANCH   1   4
BRANCH   1  14
HETATM   14  C   UNL     1      -0.897   3.039   0.177  1.00  0.00     0.388 C 
HETATM   15  F   UNL     1      -1.231   3.871  -0.861  1.00  0.00    -0.192 F 
HETATM   16  F   UNL     1      -1.478   1.842  -0.147  1.00  0.00    -0.192 F 
BRANCH  14  17
HETATM   17  C   UNL     1      -1.555   3.568   1.440  1.00  0.00     0.396 C 
HETATM   18  F   UNL     1      -2.917   3.605   1.236  1.00  0.00    -0.187 F 
HETATM   19  F   UNL     1      -1.383   2.699   2.471  1.00  0.00    -0.187 F 
BRANCH  17  20
HETATM   20  C   UNL     1      -1.083   4.970   1.780  1.00  0.00     0.222 C 
HETATM   21  O   UNL     1       0.038   5.253   2.175  1.00  0.00    -0.645 OA
BRANCH  20  22
HETATM   22  O   UNL     1      -2.053   5.915   1.636  1.00  0.00    -0.772 OA
HETATM   23  H   UNL     1      -2.926   5.536   1.387  1.00  0.00     0.167 HD
ENDBRANCH  20  22
ENDBRANCH  17  20
ENDBRANCH  14  17
ENDBRANCH   1  14
TORSDOF 7
