REMARK  3 active torsions:
REMARK  status: ('A' for Active; 'I' for Inactive)
REMARK    1  A    between atoms: C_2  and  N_5 
REMARK    2  A    between atoms: N_4  and  C_7 
REMARK    3  A    between atoms: N_5  and  C_11 
ROOT
HETATM    1 CL   UNL     1       7.659  -0.504  -0.700  1.00  0.00    -0.041 Cl
HETATM    2  N   UNL     1       7.060   1.994  -0.462  1.00  0.00    -0.187 NA
HETATM    3  C   UNL     1       6.145   2.935  -0.363  1.00  0.00     0.204 A 
HETATM    4  C   UNL     1       6.539   0.783  -0.583  1.00  0.00     0.228 A 
HETATM    5  N   UNL     1       4.836   2.734  -0.405  1.00  0.00    -0.187 NA
HETATM    6  N   UNL     1       5.261   0.443  -0.623  1.00  0.00    -0.187 NA
HETATM    7  C   UNL     1       4.438   1.473  -0.536  1.00  0.00     0.207 A 
ENDROOT
BRANCH   7   8
HETATM    8  N   UNL     1       3.064   1.284  -0.588  1.00  0.00    -0.261 NA
HETATM    9  H   UNL     1       2.637   2.122  -0.207  1.00  0.00     0.130 HD
BRANCH   8  10
HETATM   10  C   UNL     1       2.587   0.028  -0.037  1.00  0.00     0.091 C 
HETATM   11  C   UNL     1       1.067  -0.003  -0.097  1.00  0.00     0.021 C 
ENDBRANCH   8  10
ENDBRANCH   7   8
BRANCH   3  12
HETATM   12  N   UNL     1       6.583   4.238  -0.237  1.00  0.00    -0.270 NA
HETATM   13  H   UNL     1       7.519   4.339  -0.605  1.00  0.00     0.127 HD
HETATM   14  H   UNL     1       5.883   4.884  -0.575  1.00  0.00     0.127 HD
ENDBRANCH   3  12
TORSDOF 3
