REMARK  7 active torsions:
REMARK  status: ('A' for Active; 'I' for Inactive)
REMARK    1  A    between atoms: P_1  and  O_3 
REMARK    2  A    between atoms: P_1  and  O_4 
REMARK    3  A    between atoms: P_1  and  O_5 
REMARK    4  A    between atoms: O_3  and  C_6 
REMARK    5  A    between atoms: O_4  and  C_8 
REMARK    6  A    between atoms: O_5  and  C_15 
REMARK    7  A    between atoms: C_12  and  C_17 
ROOT
HETATM    1  N   UNL     1       4.924   3.239  -0.880  1.00  0.00    -0.238 NA
HETATM    2  N   UNL     1       2.980   2.265   0.073  1.00  0.00    -0.208 NA
HETATM    3  C   UNL     1       3.720   3.327  -0.281  1.00  0.00     0.132 A 
HETATM    4  C   UNL     1       4.723   0.864  -0.766  1.00  0.00     0.085 A 
HETATM    5  C   UNL     1       5.409   2.004  -1.120  1.00  0.00     0.037 A 
HETATM    6  C   UNL     1       3.487   1.060  -0.197  1.00  0.00     0.178 A 
HETATM    7  C   UNL     1       6.687   1.902  -1.896  1.00  0.00     0.070 C 
ENDROOT
BRANCH   6   8
HETATM    8  O   UNL     1       2.706  -0.070  -0.068  1.00  0.00    -0.231 OA
BRANCH   8   9
HETATM    9  P   UNL     1       0.976  -0.070  -0.068  1.00  0.00     0.483 P 
HETATM   10  O   UNL     1       0.965   0.507   1.355  1.00  0.00    -0.227 OA
BRANCH   9  11
HETATM   11  O   UNL     1       0.884   1.133  -1.189  1.00  0.00    -0.293 OA
BRANCH  11  12
HETATM   12  C   UNL     1       1.260   0.881  -2.527  1.00  0.00     0.176 C 
HETATM   13  C   UNL     1       0.985   2.130  -3.343  1.00  0.00     0.034 C 
ENDBRANCH  11  12
ENDBRANCH   9  11
BRANCH   9  14
HETATM   14  O   UNL     1      -0.754  -0.070  -0.068  1.00  0.00    -0.293 OA
BRANCH  14  15
HETATM   15  C   UNL     1      -1.371  -0.873   0.930  1.00  0.00     0.176 C 
HETATM   16  C   UNL     1      -2.873  -0.805   0.746  1.00  0.00     0.034 C 
ENDBRANCH  14  15
ENDBRANCH   9  14
ENDBRANCH   8   9
ENDBRANCH   6   8
BRANCH   3  17
HETATM   17  C   UNL     1       3.089   4.691  -0.081  1.00  0.00     0.049 C 
HETATM   18  C   UNL     1       2.975   5.022   1.407  1.00  0.00     0.018 C 
HETATM   19  C   UNL     1       3.827   5.810  -0.819  1.00  0.00     0.018 C 
ENDBRANCH   3  17
TORSDOF 7
