REMARK  6 active torsions:
REMARK  status: ('A' for Active; 'I' for Inactive)
REMARK    1  A    between atoms: C_1  and  C_2 
REMARK    2  A    between atoms: C_1  and  S_7 
REMARK    3  A    between atoms: C_2  and  C_3 
REMARK    4  A    between atoms: C_3  and  C_4 
REMARK    5  A    between atoms: C_4  and  C_5 
REMARK    6  A    between atoms: C_5  and  C_6 
ROOT
HETATM    1  C   UNL     1       0.942  -0.352  -2.268  1.00  0.00     0.385 C 
HETATM    2  F   UNL     1       0.538   0.480  -3.301  1.00  0.00    -0.192 F 
HETATM    3  F   UNL     1       2.314  -0.288  -2.350  1.00  0.00    -0.192 F 
ENDROOT
BRANCH   1   4
HETATM    4  C   UNL     1       0.503   0.335  -0.978  1.00  0.00     0.395 C 
HETATM    5  F   UNL     1      -0.847   0.479  -0.968  1.00  0.00    -0.191 F 
HETATM    6  F   UNL     1       0.951   1.652  -1.151  1.00  0.00    -0.191 F 
BRANCH   4   7
HETATM    7  C   UNL     1       1.104  -0.105   0.347  1.00  0.00     0.431 C 
HETATM    8  F   UNL     1       1.103   0.988   1.195  1.00  0.00    -0.178 F 
HETATM    9  F   UNL     1       2.435  -0.395   0.170  1.00  0.00    -0.178 F 
BRANCH   7  10
HETATM   10  S   UNL     1       0.171  -1.458   1.097  1.00  0.00     0.182 S 
HETATM   11  O   UNL     1       0.916  -1.817   2.304  1.00  0.00    -0.591 OA
HETATM   12  O   UNL     1      -1.159  -0.911   1.359  1.00  0.00    -0.591 OA
HETATM   13  O   UNL     1       0.181  -2.498   0.073  1.00  0.00    -0.591 OA
ENDBRANCH   7  10
ENDBRANCH   4   7
ENDBRANCH   1   4
BRANCH   1  14
HETATM   14  C   UNL     1       0.516  -1.747  -2.693  1.00  0.00     0.387 C 
HETATM   15  F   UNL     1       0.979  -1.934  -3.984  1.00  0.00    -0.192 F 
HETATM   16  F   UNL     1       1.238  -2.667  -1.999  1.00  0.00    -0.192 F 
BRANCH  14  17
HETATM   17  C   UNL     1      -0.974  -2.054  -2.698  1.00  0.00     0.409 C 
HETATM   18  F   UNL     1      -1.153  -3.400  -2.902  1.00  0.00    -0.189 F 
HETATM   19  F   UNL     1      -1.573  -1.765  -1.520  1.00  0.00    -0.189 F 
BRANCH  17  20
HETATM   20  C   UNL     1      -1.714  -1.317  -3.802  1.00  0.00     0.461 C 
HETATM   21  F   UNL     1      -1.227  -1.592  -5.036  1.00  0.00    -0.165 F 
HETATM   22  F   UNL     1      -3.029  -1.665  -3.830  1.00  0.00    -0.165 F 
HETATM   23  F   UNL     1      -1.686   0.025  -3.651  1.00  0.00    -0.165 F 
ENDBRANCH  17  20
ENDBRANCH  14  17
ENDBRANCH   1  14
TORSDOF 6
