REMARK  4 active torsions:
REMARK  status: ('A' for Active; 'I' for Inactive)
REMARK    1  A    between atoms: C_1  and  C_2 
REMARK    2  A    between atoms: C_1  and  S_5 
REMARK    3  A    between atoms: C_2  and  C_3 
REMARK    4  A    between atoms: C_3  and  C_4 
ROOT
HETATM    1  C   UNL     1       0.486  -1.174  -0.515  1.00  0.00     0.398 C 
HETATM    2  F   UNL     1      -0.872  -1.223  -0.528  1.00  0.00    -0.191 F 
HETATM    3  F   UNL     1       0.797  -1.017  -1.873  1.00  0.00    -0.191 F 
ENDROOT
BRANCH   1   4
HETATM    4  C   UNL     1       1.059   0.045   0.175  1.00  0.00     0.431 C 
HETATM    5  F   UNL     1       0.967   1.110  -0.703  1.00  0.00    -0.178 F 
HETATM    6  F   UNL     1       2.410  -0.131   0.355  1.00  0.00    -0.178 F 
BRANCH   4   7
HETATM    7  S   UNL     1       0.175   0.449   1.713  1.00  0.00     0.182 S 
HETATM    8  O   UNL     1       0.717   1.743   2.131  1.00  0.00    -0.591 OA
HETATM    9  O   UNL     1      -1.242   0.491   1.359  1.00  0.00    -0.591 OA
HETATM   10  O   UNL     1       0.510  -0.644   2.619  1.00  0.00    -0.591 OA
ENDBRANCH   4   7
ENDBRANCH   1   4
BRANCH   1  11
HETATM   11  C   UNL     1       1.050  -2.538  -0.182  1.00  0.00     0.410 C 
HETATM   12  F   UNL     1       0.441  -3.431  -1.053  1.00  0.00    -0.189 F 
HETATM   13  F   UNL     1       2.376  -2.592  -0.545  1.00  0.00    -0.189 F 
BRANCH  11  14
HETATM   14  C   UNL     1       0.900  -3.103   1.208  1.00  0.00     0.461 C 
HETATM   15  F   UNL     1      -0.350  -3.000   1.694  1.00  0.00    -0.165 F 
HETATM   16  F   UNL     1       1.182  -4.443   1.183  1.00  0.00    -0.165 F 
HETATM   17  F   UNL     1       1.794  -2.586   2.073  1.00  0.00    -0.165 F 
ENDBRANCH  11  14
ENDBRANCH   1  11
TORSDOF 4
