REMARK  7 active torsions:
REMARK  status: ('A' for Active; 'I' for Inactive)
REMARK    1  A    between atoms: C_1  and  C_2 
REMARK    2  A    between atoms: C_2  and  C_3 
REMARK    3  A    between atoms: C_3  and  C_4 
REMARK    4  A    between atoms: C_4  and  C_5 
REMARK    5  A    between atoms: C_5  and  C_6 
REMARK    6  A    between atoms: C_6  and  C_7 
REMARK    7  A    between atoms: C_7  and  C_8 
ROOT
HETATM    1  C   UNL     1      -2.452  -0.123  -0.176  1.00  0.00     0.384 C 
HETATM    2  F   UNL     1      -3.318   0.691   0.512  1.00  0.00    -0.192 F 
HETATM    3  F   UNL     1      -1.841   0.713  -1.056  1.00  0.00    -0.192 F 
ENDROOT
BRANCH   1   4
HETATM    4  C   UNL     1      -1.456  -0.723   0.814  1.00  0.00     0.385 C 
HETATM    5  F   UNL     1      -2.203  -1.465   1.709  1.00  0.00    -0.192 F 
HETATM    6  F   UNL     1      -0.928   0.253   1.601  1.00  0.00    -0.192 F 
BRANCH   4   7
HETATM    7  C   UNL     1      -0.369  -1.642   0.264  1.00  0.00     0.389 C 
HETATM    8  F   UNL     1      -1.012  -2.750  -0.248  1.00  0.00    -0.192 F 
HETATM    9  F   UNL     1       0.345  -2.148   1.320  1.00  0.00    -0.192 F 
BRANCH   7  10
HETATM   10  C   UNL     1       0.562  -1.119  -0.798  1.00  0.00     0.399 C 
HETATM   11  F   UNL     1      -0.141  -0.753  -1.911  1.00  0.00    -0.187 F 
HETATM   12  F   UNL     1       1.415  -2.105  -1.214  1.00  0.00    -0.187 F 
BRANCH  10  13
HETATM   13  C   UNL     1       1.341   0.076  -0.240  1.00  0.00     0.255 C 
HETATM   14  O   UNL     1       0.684   1.158  -0.178  1.00  0.00    -0.643 OA
HETATM   15  O   UNL     1       2.533  -0.127   0.128  1.00  0.00    -0.643 OA
ENDBRANCH  10  13
ENDBRANCH   7  10
ENDBRANCH   4   7
ENDBRANCH   1   4
BRANCH   1  16
HETATM   16  C   UNL     1      -3.305  -1.104  -0.973  1.00  0.00     0.387 C 
HETATM   17  F   UNL     1      -4.110  -0.371  -1.816  1.00  0.00    -0.192 F 
HETATM   18  F   UNL     1      -2.510  -1.825  -1.817  1.00  0.00    -0.192 F 
BRANCH  16  19
HETATM   19  C   UNL     1      -4.205  -2.064  -0.216  1.00  0.00     0.409 C 
HETATM   20  F   UNL     1      -4.895  -2.816  -1.140  1.00  0.00    -0.189 F 
HETATM   21  F   UNL     1      -3.479  -2.973   0.488  1.00  0.00    -0.189 F 
BRANCH  19  22
HETATM   22  C   UNL     1      -5.214  -1.370   0.682  1.00  0.00     0.461 C 
HETATM   23  F   UNL     1      -5.949  -0.448   0.020  1.00  0.00    -0.165 F 
HETATM   24  F   UNL     1      -6.095  -2.264   1.205  1.00  0.00    -0.165 F 
HETATM   25  F   UNL     1      -4.642  -0.751   1.737  1.00  0.00    -0.165 F 
ENDBRANCH  19  22
ENDBRANCH  16  19
ENDBRANCH   1  16
TORSDOF 7
