REMARK  6 active torsions:
REMARK  status: ('A' for Active; 'I' for Inactive)
REMARK    1  A    between atoms: C_1  and  O_2 
REMARK    2  A    between atoms: C_7  and  C_22 
REMARK    3  A    between atoms: C_8  and  O_9 
REMARK    4  A    between atoms: C_14  and  C_22 
REMARK    5  A    between atoms: C_15  and  O_16 
REMARK    6  A    between atoms: C_21  and  C_22 
ROOT
HETATM    1  C   UNL     1       2.835   0.321  -0.221  1.00  0.00     0.037 C 
HETATM    2  C   UNL     1       3.552  -1.075  -0.260  1.00  0.00     0.031 C 
ENDROOT
BRANCH   1   3
HETATM    3  C   UNL     1       1.282   0.119  -0.087  1.00  0.00    -0.041 A 
HETATM    4  C   UNL     1       0.700  -1.107   0.289  1.00  0.00     0.011 A 
HETATM    5  C   UNL     1      -0.691  -1.271   0.332  1.00  0.00     0.037 A 
HETATM    6  C   UNL     1      -1.526  -0.206   0.033  1.00  0.00     0.065 A 
HETATM    7  C   UNL     1      -0.995   1.022  -0.328  1.00  0.00     0.037 A 
HETATM    8  C   UNL     1       0.393   1.172  -0.404  1.00  0.00     0.011 A 
BRANCH   6   9
HETATM    9  O   UNL     1      -2.872  -0.408   0.097  1.00  0.00    -0.361 OA
HETATM   10  H   UNL     1      -3.318   0.431  -0.104  1.00  0.00     0.217 HD
ENDBRANCH   6   9
ENDBRANCH   1   3
BRANCH   1  11
HETATM   11  C   UNL     1       3.130   0.966  -1.627  1.00  0.00    -0.041 A 
HETATM   12  C   UNL     1       3.610   2.277  -1.800  1.00  0.00     0.011 A 
HETATM   13  C   UNL     1       3.736   2.842  -3.076  1.00  0.00     0.037 A 
HETATM   14  C   UNL     1       3.422   2.098  -4.202  1.00  0.00     0.065 A 
HETATM   15  C   UNL     1       2.981   0.790  -4.079  1.00  0.00     0.037 A 
HETATM   16  C   UNL     1       2.822   0.240  -2.804  1.00  0.00     0.011 A 
BRANCH  14  17
HETATM   17  O   UNL     1       3.548   2.692  -5.422  1.00  0.00    -0.361 OA
HETATM   18  H   UNL     1       3.260   2.062  -6.102  1.00  0.00     0.217 HD
ENDBRANCH  14  17
ENDBRANCH   1  11
BRANCH   1  19
HETATM   19  C   UNL     1       3.404   1.137   1.007  1.00  0.00    -0.041 A 
HETATM   20  C   UNL     1       2.894   2.408   1.354  1.00  0.00     0.011 A 
HETATM   21  C   UNL     1       3.430   3.164   2.406  1.00  0.00     0.037 A 
HETATM   22  C   UNL     1       4.471   2.659   3.161  1.00  0.00     0.065 A 
HETATM   23  C   UNL     1       4.985   1.401   2.884  1.00  0.00     0.037 A 
HETATM   24  C   UNL     1       4.460   0.659   1.816  1.00  0.00     0.011 A 
BRANCH  22  25
HETATM   25  O   UNL     1       4.972   3.428   4.167  1.00  0.00    -0.361 OA
HETATM   26  H   UNL     1       5.710   2.954   4.582  1.00  0.00     0.217 HD
ENDBRANCH  22  25
ENDBRANCH   1  19
TORSDOF 6
