REMARK  6 active torsions:
REMARK  status: ('A' for Active; 'I' for Inactive)
REMARK    1  A    between atoms: C_1  and  C_3 
REMARK    2  A    between atoms: C_1  and  O_8 
REMARK    3  A    between atoms: C_2  and  C_4 
REMARK    4  A    between atoms: C_2  and  O_9 
REMARK    5  A    between atoms: O_8  and  C_13 
REMARK    6  A    between atoms: O_9  and  C_19 
ROOT
HETATM    1  C   UNL     1       0.346  -1.214   0.712  1.00  0.00     0.040 A 
HETATM    2  C   UNL     1      -0.205  -3.568   1.035  1.00  0.00     0.040 A 
HETATM    3  C   UNL     1       0.555  -2.564   0.416  1.00  0.00     0.035 A 
HETATM    4  C   UNL     1      -0.729  -0.867   1.543  1.00  0.00     0.017 A 
HETATM    5  C   UNL     1      -1.263  -3.204   1.875  1.00  0.00     0.017 A 
HETATM    6  C   UNL     1      -1.537  -1.856   2.112  1.00  0.00     0.002 A 
ENDROOT
BRANCH   1   7
HETATM    7  C   UNL     1       1.110  -0.118   0.053  1.00  0.00     0.298 C 
HETATM    8  O   UNL     1       0.509   0.886  -0.320  1.00  0.00    -0.259 OA
BRANCH   7   9
HETATM    9  O   UNL     1       2.494  -0.232  -0.137  1.00  0.00    -0.275 OA
BRANCH   9  10
HETATM   10  C   UNL     1       3.391  -1.112   0.513  1.00  0.00     0.079 C 
HETATM   11  C   UNL     1       4.032  -0.699   1.677  1.00  0.00     0.037 C 
HETATM   12  C   UNL     1       4.931  -1.570   2.297  1.00  0.00     0.003 C 
HETATM   13  C   UNL     1       5.161  -2.840   1.761  1.00  0.00     0.000 C 
HETATM   14  C   UNL     1       4.553  -3.216   0.563  1.00  0.00     0.003 C 
HETATM   15  C   UNL     1       3.709  -2.325  -0.093  1.00  0.00     0.037 C 
ENDBRANCH   9  10
ENDBRANCH   7   9
ENDBRANCH   1   7
BRANCH   2  16
HETATM   16  C   UNL     1       0.060  -5.016   0.805  1.00  0.00     0.298 C 
HETATM   17  O   UNL     1      -0.712  -5.899   1.150  1.00  0.00    -0.259 OA
BRANCH  16  18
HETATM   18  O   UNL     1       1.292  -5.167   0.181  1.00  0.00    -0.275 OA
BRANCH  18  19
HETATM   19  C   UNL     1       1.838  -6.420  -0.180  1.00  0.00     0.079 A 
HETATM   20  C   UNL     1       2.720  -6.403  -1.263  1.00  0.00     0.037 A 
HETATM   21  C   UNL     1       3.320  -7.589  -1.687  1.00  0.00     0.003 A 
HETATM   22  C   UNL     1       3.044  -8.784  -1.023  1.00  0.00     0.000 A 
HETATM   23  C   UNL     1       2.180  -8.790   0.074  1.00  0.00     0.003 A 
HETATM   24  C   UNL     1       1.582  -7.604   0.506  1.00  0.00     0.037 A 
ENDBRANCH  18  19
ENDBRANCH  16  18
ENDBRANCH   2  16
TORSDOF 6
