REMARK  1 active torsions:
REMARK  status: ('A' for Active; 'I' for Inactive)
REMARK    1  A    between atoms: C_16  and  O_17 
ROOT
HETATM    1  C   UNL     1      -0.708   0.026  -0.000  1.00  0.00    -0.004 A 
HETATM    2  C   UNL     1       0.713   0.043   0.000  1.00  0.00    -0.001 A 
HETATM    3  C   UNL     1       1.417  -1.188   0.000  1.00  0.00    -0.024 A 
HETATM    4  C   UNL     1      -1.408  -1.204  -0.001  1.00  0.00    -0.024 A 
HETATM    5  C   UNL     1       1.419   1.275   0.000  1.00  0.00     0.009 A 
HETATM    6  C   UNL     1      -1.433   1.238   0.000  1.00  0.00    -0.024 A 
HETATM    7  C   UNL     1      -0.688  -2.404  -0.001  1.00  0.00     0.013 A 
HETATM    8  C   UNL     1       0.662   2.468   0.001  1.00  0.00     0.016 A 
HETATM    9  C   UNL     1      -0.736   2.449   0.001  1.00  0.00     0.013 A 
HETATM   10  C   UNL     1       0.707  -2.395  -0.000  1.00  0.00     0.013 A 
HETATM   11  C   UNL     1       3.520   0.012   0.001  1.00  0.00     0.038 A 
HETATM   12  C   UNL     1      -3.521  -0.005  -0.001  1.00  0.00     0.002 A 
HETATM   13  C   UNL     1      -2.811  -1.204  -0.001  1.00  0.00     0.012 A 
HETATM   14  C   UNL     1      -2.836   1.209  -0.000  1.00  0.00     0.012 A 
HETATM   15  C   UNL     1       2.816  -1.188   0.001  1.00  0.00     0.015 A 
HETATM   16  C   UNL     1       2.834   1.223   0.000  1.00  0.00     0.076 A 
ENDROOT
BRANCH  16  17
HETATM   17  O   UNL     1       3.638   2.333   0.000  1.00  0.00    -0.360 OA
HETATM   18  H   UNL     1       3.092   3.131  -0.008  1.00  0.00     0.217 HD
ENDBRANCH  16  17
TORSDOF 1
