REMARK  4 active torsions:
REMARK  status: ('A' for Active; 'I' for Inactive)
REMARK    1  A    between atoms: C_1  and  C_2 
REMARK    2  A    between atoms: C_1  and  O_7 
REMARK    3  A    between atoms: C_5  and  O_6 
REMARK    4  A    between atoms: O_6  and  C_8 
ROOT
HETATM    1  C   UNL     1       0.152  -0.803   0.803  1.00  0.00     0.040 A 
HETATM    2  C   UNL     1       0.611  -2.114   0.613  1.00  0.00     0.055 A 
HETATM    3  C   UNL     1       0.267  -3.106   1.530  1.00  0.00     0.077 A 
HETATM    4  C   UNL     1      -0.741  -0.495   1.830  1.00  0.00     0.018 A 
HETATM    5  C   UNL     1      -1.142  -1.499   2.706  1.00  0.00     0.004 A 
HETATM    6  C   UNL     1      -0.624  -2.790   2.566  1.00  0.00     0.037 A 
ENDROOT
BRANCH   3   7
HETATM    7  O   UNL     1       0.693  -4.415   1.536  1.00  0.00    -0.311 OA
BRANCH   7   8
HETATM    8  C   UNL     1       1.615  -4.896   0.641  1.00  0.00     0.076 A 
HETATM    9  C   UNL     1       2.810  -4.260   0.303  1.00  0.00     0.037 A 
HETATM   10  C   UNL     1       3.675  -4.843  -0.628  1.00  0.00     0.003 A 
HETATM   11  C   UNL     1       3.385  -6.098  -1.161  1.00  0.00     0.000 A 
HETATM   12  C   UNL     1       2.237  -6.776  -0.758  1.00  0.00     0.003 A 
HETATM   13  C   UNL     1       1.354  -6.175   0.140  1.00  0.00     0.037 A 
ENDBRANCH   7   8
ENDBRANCH   3   7
BRANCH   1  14
HETATM   14  C   UNL     1       0.636   0.291  -0.066  1.00  0.00     0.176 C 
HETATM   15  O   UNL     1      -0.088   1.119  -0.578  1.00  0.00    -0.646 OA
BRANCH  14  16
HETATM   16  O   UNL     1       1.986   0.301  -0.153  1.00  0.00    -0.773 OA
HETATM   17  H   UNL     1       2.434  -0.319   0.452  1.00  0.00     0.167 HD
ENDBRANCH  14  16
ENDBRANCH   1  14
TORSDOF 4
