REMARK  6 active torsions:
REMARK  status: ('A' for Active; 'I' for Inactive)
REMARK    1  A    between atoms: C_1  and  O_4 
REMARK    2  A    between atoms: P_3  and  O_4 
REMARK    3  A    between atoms: P_3  and  O_10 
REMARK    4  A    between atoms: P_3  and  O_11 
REMARK    5  A    between atoms: O_10  and  C_15 
REMARK    6  A    between atoms: O_11  and  C_16 
ROOT
HETATM    1  C   UNL     1      -0.743   1.225   0.138  1.00  0.00     0.198 A 
HETATM    2  N   UNL     1      -1.524   0.128   0.186  1.00  0.00    -0.209 NA
HETATM    3  C   UNL     1      -0.871  -1.063   0.204  1.00  0.00     0.150 A 
HETATM    4  C   UNL     1       0.652   1.194   0.128  1.00  0.00     0.089 A 
HETATM    5  C   UNL     1       1.289  -0.042   0.156  1.00  0.00     0.055 A 
HETATM    6  C   UNL     1       0.518  -1.201   0.186  1.00  0.00     0.076 A 
HETATM    7 CL   UNL     1      -1.945  -2.405   0.229  1.00  0.00    -0.060 Cl
HETATM    8 CL   UNL     1       1.603   2.627   0.048  1.00  0.00    -0.080 Cl
HETATM    9 CL   UNL     1       1.320  -2.724   0.187  1.00  0.00    -0.081 Cl
ENDROOT
BRANCH   1  10
HETATM   10  O   UNL     1      -1.364   2.437   0.004  1.00  0.00    -0.229 OA
BRANCH  10  11
HETATM   11  P   UNL     1      -3.093   2.473   0.004  1.00  0.00     0.483 P 
HETATM   12  O   UNL     1      -2.993   3.940   0.453  1.00  0.00    -0.227 OA
BRANCH  11  13
HETATM   13  O   UNL     1      -3.166   2.455  -1.656  1.00  0.00    -0.293 OA
BRANCH  13  14
HETATM   14  C   UNL     1      -2.041   2.699  -2.481  1.00  0.00     0.176 C 
HETATM   15  C   UNL     1      -2.480   2.825  -3.925  1.00  0.00     0.034 C 
ENDBRANCH  13  14
ENDBRANCH  11  13
BRANCH  11  16
HETATM   16  O   UNL     1      -4.823   2.508   0.004  1.00  0.00    -0.293 OA
BRANCH  16  17
HETATM   17  C   UNL     1      -5.509   3.640   0.520  1.00  0.00     0.176 C 
HETATM   18  C   UNL     1      -7.002   3.399   0.419  1.00  0.00     0.034 C 
ENDBRANCH  16  17
ENDBRANCH  11  16
ENDBRANCH  10  11
ENDBRANCH   1  10
TORSDOF 6
