REMARK  7 active torsions:
REMARK  status: ('A' for Active; 'I' for Inactive)
REMARK    1  A    between atoms: C_1  and  C_2 
REMARK    2  A    between atoms: C_1  and  O_6 
REMARK    3  A    between atoms: C_2  and  C_3 
REMARK    4  A    between atoms: C_3  and  C_4 
REMARK    5  A    between atoms: C_4  and  O_8 
REMARK    6  A    between atoms: O_6  and  C_9 
REMARK    7  A    between atoms: O_8  and  C_11 
ROOT
HETATM    1  C   UNL     1       0.386   1.099   0.326  1.00  0.00     0.121 C 
ENDROOT
BRANCH   1   2
HETATM    2  C   UNL     1       1.246  -0.090  -0.025  1.00  0.00     0.259 C 
HETATM    3  O   UNL     1       2.470  -0.060  -0.017  1.00  0.00    -0.265 OA
BRANCH   2   4
HETATM    4  O   UNL     1       0.565  -1.223  -0.361  1.00  0.00    -0.322 OA
BRANCH   4   5
HETATM    5  C   UNL     1      -0.877  -1.256  -0.370  1.00  0.00     0.174 C 
HETATM    6  C   UNL     1      -1.346  -2.637  -0.779  1.00  0.00     0.034 C 
ENDBRANCH   4   5
ENDBRANCH   2   4
ENDBRANCH   1   2
BRANCH   1   7
HETATM    7  C   UNL     1       1.147   2.351   0.697  1.00  0.00     0.121 C 
BRANCH   7   8
HETATM    8  C   UNL     1       0.400   3.618   1.071  1.00  0.00     0.259 C 
HETATM    9  O   UNL     1       1.067   4.614   1.366  1.00  0.00    -0.265 OA
BRANCH   8  10
HETATM   10  O   UNL     1      -0.941   3.726   1.103  1.00  0.00    -0.322 OA
BRANCH  10  11
HETATM   11  C   UNL     1      -1.955   2.748   0.814  1.00  0.00     0.174 C 
HETATM   12  C   UNL     1      -3.320   3.382   1.002  1.00  0.00     0.034 C 
ENDBRANCH  10  11
ENDBRANCH   8  10
ENDBRANCH   7   8
ENDBRANCH   1   7
TORSDOF 7
