REMARK  9 active torsions:
REMARK  status: ('A' for Active; 'I' for Inactive)
REMARK    1  A    between atoms: C_1  and  C_2 
REMARK    2  A    between atoms: C_1  and  S_9 
REMARK    3  A    between atoms: C_2  and  C_3 
REMARK    4  A    between atoms: C_3  and  C_4 
REMARK    5  A    between atoms: C_4  and  C_5 
REMARK    6  A    between atoms: C_5  and  C_6 
REMARK    7  A    between atoms: C_6  and  C_7 
REMARK    8  A    between atoms: C_7  and  C_8 
REMARK    9  A    between atoms: S_9  and  N_12 
ROOT
HETATM    1  C   UNL     1       0.592  -3.103  -0.334  1.00  0.00     0.384 C 
HETATM    2  F   UNL     1       1.125  -4.282  -0.761  1.00  0.00    -0.192 F 
HETATM    3  F   UNL     1       1.236  -2.864   0.838  1.00  0.00    -0.192 F 
ENDROOT
BRANCH   1   4
HETATM    4  C   UNL     1       0.992  -1.985  -1.279  1.00  0.00     0.385 C 
HETATM    5  F   UNL     1       0.564  -2.339  -2.532  1.00  0.00    -0.192 F 
HETATM    6  F   UNL     1       2.361  -2.000  -1.377  1.00  0.00    -0.192 F 
BRANCH   4   7
HETATM    7  C   UNL     1       0.561  -0.537  -1.023  1.00  0.00     0.394 C 
HETATM    8  F   UNL     1      -0.783  -0.405  -1.148  1.00  0.00    -0.191 F 
HETATM    9  F   UNL     1       1.045   0.154  -2.132  1.00  0.00    -0.191 F 
BRANCH   7  10
HETATM   10  C   UNL     1       1.110   0.212   0.184  1.00  0.00     0.426 C 
HETATM   11  F   UNL     1       1.092   1.557  -0.121  1.00  0.00    -0.180 F 
HETATM   12  F   UNL     1       2.430  -0.090   0.369  1.00  0.00    -0.180 F 
BRANCH  10  13
HETATM   13  S   UNL     1       0.155   0.011   1.764  1.00  0.00     0.282 S 
HETATM   14  O   UNL     1       0.474   1.093   2.676  1.00  0.00    -0.205 OA
HETATM   15  O   UNL     1       0.180  -1.349   2.239  1.00  0.00    -0.205 OA
BRANCH  13  16
HETATM   16  N   UNL     1      -1.461   0.265   1.419  1.00  0.00    -0.224 NA
HETATM   17  H   UNL     1      -1.815   1.076   1.932  1.00  0.00     0.136 HD
HETATM   18  H   UNL     1      -2.000  -0.586   1.615  1.00  0.00     0.136 HD
ENDBRANCH  13  16
ENDBRANCH  10  13
ENDBRANCH   7  10
ENDBRANCH   4   7
ENDBRANCH   1   4
BRANCH   1  19
HETATM   19  C   UNL     1      -0.901  -3.302  -0.105  1.00  0.00     0.384 C 
HETATM   20  F   UNL     1      -1.104  -4.022   1.032  1.00  0.00    -0.192 F 
HETATM   21  F   UNL     1      -1.461  -2.090   0.176  1.00  0.00    -0.192 F 
BRANCH  19  22
HETATM   22  C   UNL     1      -1.702  -3.952  -1.229  1.00  0.00     0.387 C 
HETATM   23  F   UNL     1      -3.031  -3.849  -0.894  1.00  0.00    -0.192 F 
HETATM   24  F   UNL     1      -1.583  -3.191  -2.356  1.00  0.00    -0.192 F 
BRANCH  22  25
HETATM   25  C   UNL     1      -1.424  -5.408  -1.569  1.00  0.00     0.409 C 
HETATM   26  F   UNL     1      -2.305  -5.793  -2.548  1.00  0.00    -0.189 F 
HETATM   27  F   UNL     1      -0.195  -5.547  -2.134  1.00  0.00    -0.189 F 
BRANCH  25  28
HETATM   28  C   UNL     1      -1.575  -6.332  -0.371  1.00  0.00     0.461 C 
HETATM   29  F   UNL     1      -2.754  -6.152   0.266  1.00  0.00    -0.165 F 
HETATM   30  F   UNL     1      -1.509  -7.635  -0.732  1.00  0.00    -0.165 F 
HETATM   31  F   UNL     1      -0.589  -6.139   0.533  1.00  0.00    -0.165 F 
ENDBRANCH  25  28
ENDBRANCH  22  25
ENDBRANCH  19  22
ENDBRANCH   1  19
TORSDOF 9
