REMARK  4 active torsions:
REMARK  status: ('A' for Active; 'I' for Inactive)
REMARK    1  A    between atoms: C_2  and  C_3 
REMARK    2  A    between atoms: C_2  and  S_10 
REMARK    3  A    between atoms: N_4  and  O_5 
REMARK    4  A    between atoms: O_5  and  C_6 
REMARK       I    between atoms: C_6  and  N_8 
ROOT
HETATM    1  C   UNL     1       3.075   1.354  -0.653  1.00  0.00     0.139 C 
HETATM    2  N   UNL     1       2.564   1.805  -1.753  1.00  0.00    -0.138 NA
ENDROOT
BRANCH   2   3
HETATM    3  O   UNL     1       3.178   3.018  -2.115  1.00  0.00    -0.156 OA
BRANCH   3   4
HETATM    4  C   UNL     1       2.785   3.379  -3.385  1.00  0.00     0.384 C 
HETATM    5  O   UNL     1       2.054   2.732  -4.126  1.00  0.00    -0.236 OA
HETATM    6  N   UNL     1       3.337   4.588  -3.718  1.00  0.00    -0.340 N 
HETATM    7  C   UNL     1       3.089   5.234  -4.979  1.00  0.00     0.151 C 
HETATM    8  H   UNL     1       3.911   5.038  -3.021  1.00  0.00     0.164 HD
ENDBRANCH   3   4
ENDBRANCH   2   3
BRANCH   1   9
HETATM    9  C   UNL     1       2.612   0.019  -0.084  1.00  0.00     0.036 C 
HETATM   10  C   UNL     1       1.084  -0.033   0.002  1.00  0.00     0.032 C 
HETATM   11  C   UNL     1       3.121  -1.092  -1.012  1.00  0.00     0.032 C 
BRANCH   9  12
HETATM   12  S   UNL     1       3.405  -0.264   1.564  1.00  0.00    -0.159 SA
HETATM   13  C   UNL     1       2.571   0.969   2.594  1.00  0.00     0.091 C 
ENDBRANCH   9  12
ENDBRANCH   1   9
TORSDOF 4
