REMARK  6 active torsions:
REMARK  status: ('A' for Active; 'I' for Inactive)
REMARK    1  A    between atoms: C_2  and  C_10 
REMARK    2  A    between atoms: C_3  and  C_4 
REMARK    3  A    between atoms: C_4  and  O_9 
REMARK    4  A    between atoms: C_5  and  C_19 
REMARK    5  A    between atoms: C_7  and  O_9 
REMARK    6  A    between atoms: C_17  and  C_19 
ROOT
HETATM    1  C   UNL     1      -5.181  -1.791  -2.421  1.00  0.00     0.265 C 
HETATM    2  O   UNL     1      -6.377  -1.685  -2.651  1.00  0.00    -0.265 OA
ENDROOT
BRANCH   1   3
HETATM    3  C   UNL     1      -4.249  -2.347  -3.437  1.00  0.00     0.102 A 
HETATM    4  C   UNL     1      -4.367  -3.822  -3.863  1.00  0.00    -0.027 A 
HETATM    5  C   UNL     1      -4.707  -2.700  -4.828  1.00  0.00     0.031 A 
HETATM    6  C   UNL     1      -5.531  -4.659  -3.367  1.00  0.00     0.016 C 
HETATM    7  C   UNL     1      -3.111  -4.644  -3.997  1.00  0.00     0.016 C 
BRANCH   5   8
HETATM    8  C   UNL     1      -3.929  -2.443  -6.059  1.00  0.00    -0.018 C 
HETATM    9  C   UNL     1      -2.670  -2.054  -6.357  1.00  0.00    -0.091 C 
HETATM   10  C   UNL     1      -1.508  -1.794  -5.441  1.00  0.00     0.042 C 
HETATM   11  C   UNL     1      -2.287  -1.815  -7.801  1.00  0.00     0.042 C 
ENDBRANCH   5   8
ENDBRANCH   1   3
BRANCH   1  12
HETATM   12  O   UNL     1      -4.679  -1.485  -1.194  1.00  0.00    -0.311 OA
BRANCH  12  13
HETATM   13  C   UNL     1      -3.329  -1.208  -0.756  1.00  0.00     0.168 A 
HETATM   14  C   UNL     1      -2.777   0.085  -1.316  1.00  0.00    -0.044 A 
HETATM   15  C   UNL     1      -1.550  -0.043  -1.856  1.00  0.00    -0.004 A 
HETATM   16  C   UNL     1      -3.627   1.299  -1.121  1.00  0.00     0.047 C 
HETATM   17  C   UNL     1      -1.221  -1.494  -1.714  1.00  0.00     0.159 A 
HETATM   18  C   UNL     1      -2.283  -2.276  -1.004  1.00  0.00     0.120 A 
HETATM   19  O   UNL     1      -0.185  -1.987  -2.139  1.00  0.00    -0.293 OA
BRANCH  15  20
HETATM   20  C   UNL     1      -0.484   0.807  -2.486  1.00  0.00     0.069 C 
BRANCH  20  21
HETATM   21  C   UNL     1      -0.598   2.302  -2.402  1.00  0.00    -0.032 C 
HETATM   22  C   UNL     1       0.181   3.121  -3.126  1.00  0.00     0.007 C 
ENDBRANCH  20  21
ENDBRANCH  15  20
ENDBRANCH  12  13
ENDBRANCH   1  12
TORSDOF 6
