REMARK  4 active torsions:
REMARK  status: ('A' for Active; 'I' for Inactive)
REMARK    1  A    between atoms: C_1  and  C_3 
REMARK    2  A    between atoms: C_2  and  C_4 
REMARK    3  A    between atoms: C_3  and  O_7 
REMARK    4  A    between atoms: C_4  and  O_8 
ROOT
HETATM    1  C   UNL     1      -1.541  -0.154  -0.121  1.00  0.00     0.056 A 
HETATM    2  C   UNL     1      -0.744  -1.322  -0.106  1.00  0.00     0.053 A 
HETATM    3  C   UNL     1      -0.901   1.111  -0.056  1.00  0.00     0.018 A 
HETATM    4  C   UNL     1       0.664  -1.151  -0.035  1.00  0.00     0.019 A 
HETATM    5  C   UNL     1       0.485   1.239   0.016  1.00  0.00     0.001 A 
HETATM    6  C   UNL     1       1.272   0.103   0.024  1.00  0.00     0.001 A 
ENDROOT
BRANCH   1   7
HETATM    7  C   UNL     1      -3.032  -0.151  -0.204  1.00  0.00     0.294 C 
HETATM    8  O   UNL     1      -3.712  -1.161  -0.281  1.00  0.00    -0.259 OA
BRANCH   7   9
HETATM    9  O   UNL     1      -3.539   1.108  -0.205  1.00  0.00    -0.322 OA
HETATM   10  C   UNL     1      -4.962   1.177  -0.325  1.00  0.00     0.213 C 
ENDBRANCH   7   9
ENDBRANCH   1   7
BRANCH   2  11
HETATM   11  C   UNL     1      -1.141  -2.778  -0.144  1.00  0.00     0.177 C 
HETATM   12  O   UNL     1      -0.291  -3.649   0.009  1.00  0.00    -0.646 OA
BRANCH  11  13
HETATM   13  O   UNL     1      -2.406  -3.146  -0.382  1.00  0.00    -0.773 OA
HETATM   14  H   UNL     1      -3.095  -2.447  -0.418  1.00  0.00     0.167 HD
ENDBRANCH  11  13
ENDBRANCH   2  11
TORSDOF 4
