REMARK  7 active torsions:
REMARK  status: ('A' for Active; 'I' for Inactive)
REMARK    1  A    between atoms: C_1  and  C_3 
REMARK    2  A    between atoms: C_2  and  C_4 
REMARK    3  A    between atoms: C_3  and  O_7 
REMARK    4  A    between atoms: C_4  and  O_8 
REMARK    5  A    between atoms: O_7  and  C_13 
REMARK    6  A    between atoms: C_13  and  C_14 
REMARK    7  A    between atoms: C_14  and  C_15 
ROOT
HETATM    1  C   UNL     1      -1.552  -0.166  -0.118  1.00  0.00     0.056 A 
HETATM    2  C   UNL     1      -0.732  -1.319  -0.102  1.00  0.00     0.053 A 
HETATM    3  C   UNL     1      -0.938   1.112  -0.056  1.00  0.00     0.018 A 
HETATM    4  C   UNL     1       0.673  -1.123  -0.033  1.00  0.00     0.019 A 
HETATM    5  C   UNL     1       0.447   1.264   0.013  1.00  0.00     0.001 A 
HETATM    6  C   UNL     1       1.255   0.143   0.023  1.00  0.00     0.001 A 
ENDROOT
BRANCH   1   7
HETATM    7  C   UNL     1      -3.041  -0.197  -0.194  1.00  0.00     0.294 C 
HETATM    8  O   UNL     1      -3.685  -1.232  -0.252  1.00  0.00    -0.259 OA
BRANCH   7   9
HETATM    9  O   UNL     1      -3.602   1.042  -0.218  1.00  0.00    -0.317 OA
BRANCH   9  10
HETATM   10  C   UNL     1      -5.032   1.012  -0.347  1.00  0.00     0.179 C 
BRANCH  10  11
HETATM   11  C   UNL     1      -5.590   2.431  -0.329  1.00  0.00     0.026 C 
BRANCH  11  12
HETATM   12  C   UNL     1      -7.110   2.407  -0.491  1.00  0.00    -0.002 C 
HETATM   13  C   UNL     1      -7.716   3.799  -0.467  1.00  0.00     0.005 C 
ENDBRANCH  11  12
ENDBRANCH  10  11
ENDBRANCH   9  10
ENDBRANCH   7   9
ENDBRANCH   1   7
BRANCH   2  14
HETATM   14  C   UNL     1      -1.099  -2.784  -0.140  1.00  0.00     0.177 C 
HETATM   15  O   UNL     1      -0.234  -3.637   0.030  1.00  0.00    -0.646 OA
BRANCH  14  16
HETATM   16  O   UNL     1      -2.350  -3.181  -0.406  1.00  0.00    -0.773 OA
HETATM   17  H   UNL     1      -3.054  -2.498  -0.429  1.00  0.00     0.167 HD
ENDBRANCH  14  16
ENDBRANCH   2  14
TORSDOF 7
