REMARK  4 active torsions:
REMARK  status: ('A' for Active; 'I' for Inactive)
REMARK    1  A    between atoms: C_1  and  O_3 
REMARK    2  A    between atoms: C_1  and  C_4 
REMARK    3  A    between atoms: O_3  and  C_7 
REMARK    4  A    between atoms: C_4  and  C_5 
ROOT
HETATM    1  C   UNL     1       0.957  -0.150  -0.022  1.00  0.00     0.258 C 
HETATM    2  O   UNL     1       0.297  -1.078  -0.470  1.00  0.00    -0.265 OA
ENDROOT
BRANCH   1   3
HETATM    3  O   UNL     1       0.436   0.986   0.526  1.00  0.00    -0.322 OA
BRANCH   3   4
HETATM    4  C   UNL     1      -0.996   1.018   0.541  1.00  0.00     0.174 C 
HETATM    5  C   UNL     1      -1.441   2.324   1.171  1.00  0.00     0.034 C 
ENDBRANCH   3   4
ENDBRANCH   1   3
BRANCH   1   6
HETATM    6  C   UNL     1       2.466  -0.083   0.010  1.00  0.00     0.111 C 
BRANCH   6   7
HETATM    7  C   UNL     1       3.097  -1.336  -0.594  1.00  0.00     0.005 C 
HETATM    8  C   UNL     1       4.615  -1.274  -0.564  1.00  0.00     0.005 C 
ENDBRANCH   6   7
ENDBRANCH   1   6
TORSDOF 4
