REMARK  8 active torsions:
REMARK  status: ('A' for Active; 'I' for Inactive)
REMARK    1  A    between atoms: C_3  and  S_7 
REMARK    2  A    between atoms: C_4  and  O_24 
REMARK    3  A    between atoms: S_7  and  N_10 
REMARK       I    between atoms: N_10  and  C_11 
REMARK       I    between atoms: C_11  and  N_13 
REMARK    4  A    between atoms: N_13  and  C_16 
REMARK    5  A    between atoms: C_18  and  O_22 
REMARK    6  A    between atoms: C_19  and  O_20 
REMARK    7  A    between atoms: O_24  and  C_25 
REMARK    8  A    between atoms: C_25  and  C_26 
ROOT
HETATM    1  S   UNL     1       2.777  -1.521   1.179  1.00  0.00     0.308 S 
HETATM    2  O   UNL     1       3.693  -1.622   0.038  1.00  0.00    -0.197 OA
HETATM    3  O   UNL     1       2.160  -2.816   1.490  1.00  0.00    -0.197 OA
ENDROOT
BRANCH   1   4
HETATM    4  C   UNL     1       1.387  -0.529   0.483  1.00  0.00     0.207 A 
HETATM    5  N   UNL     1       0.199  -1.199   0.649  1.00  0.00    -0.245 NA
HETATM    6  C   UNL     1      -0.926  -0.580   0.259  1.00  0.00     0.118 A 
HETATM    7  C   UNL     1      -0.943   0.676  -0.310  1.00  0.00     0.022 A 
HETATM    8  C   UNL     1       0.276   1.324  -0.496  1.00  0.00     0.041 A 
HETATM    9  C   UNL     1       1.491   0.727  -0.122  1.00  0.00     0.111 A 
BRANCH   9  10
HETATM   10  O   UNL     1       2.539   1.571  -0.344  1.00  0.00    -0.339 OA
BRANCH  10  11
HETATM   11  C   UNL     1       3.800   1.024  -0.718  1.00  0.00     0.293 C 
BRANCH  11  12
HETATM   12  C   UNL     1       4.717   2.114  -1.245  1.00  0.00     0.408 C 
HETATM   13  F   UNL     1       4.224   2.693  -2.367  1.00  0.00    -0.169 F 
HETATM   14  F   UNL     1       4.930   3.098  -0.341  1.00  0.00    -0.169 F 
HETATM   15  F   UNL     1       5.935   1.610  -1.569  1.00  0.00    -0.169 F 
ENDBRANCH  11  12
ENDBRANCH  10  11
ENDBRANCH   9  10
ENDBRANCH   1   4
BRANCH   1  16
HETATM   16  N   UNL     1       3.425  -0.853   2.475  1.00  0.00    -0.100 NA
HETATM   17  C   UNL     1       3.263   0.443   2.692  1.00  0.00     0.371 C 
HETATM   18  O   UNL     1       2.198   1.049   2.720  1.00  0.00    -0.243 OA
HETATM   19  N   UNL     1       4.472   1.024   2.985  1.00  0.00    -0.135 N 
HETATM   20  H   UNL     1       5.270   0.416   3.058  1.00  0.00     0.189 HD
BRANCH  19  21
HETATM   21  C   UNL     1       4.737   2.373   3.181  1.00  0.00     0.735 A 
HETATM   22  N   UNL     1       3.794   3.300   3.001  1.00  0.00    -0.038 NA
HETATM   23  C   UNL     1       4.152   4.580   3.155  1.00  0.00     0.187 A 
HETATM   24  C   UNL     1       5.413   4.976   3.503  1.00  0.00     0.117 A 
HETATM   25  C   UNL     1       6.308   3.953   3.673  1.00  0.00     0.187 A 
HETATM   26  N   UNL     1       6.008   2.652   3.514  1.00  0.00    -0.038 NA
BRANCH  23  27
HETATM   27  O   UNL     1       3.219   5.582   2.962  1.00  0.00    -0.339 OA
HETATM   28  C   UNL     1       1.952   5.069   2.550  1.00  0.00     0.211 C 
ENDBRANCH  23  27
BRANCH  25  29
HETATM   29  O   UNL     1       7.591   4.329   4.031  1.00  0.00    -0.339 OA
HETATM   30  C   UNL     1       8.472   3.222   4.193  1.00  0.00     0.211 C 
ENDBRANCH  25  29
ENDBRANCH  19  21
ENDBRANCH   1  16
TORSDOF 8
