REMARK  5 active torsions:
REMARK  status: ('A' for Active; 'I' for Inactive)
REMARK    1  A    between atoms: N_1  and  C_7 
REMARK    2  A    between atoms: C_6  and  C_7 
REMARK    3  A    between atoms: C_6  and  O_8 
REMARK    4  A    between atoms: C_6  and  C_18 
REMARK    5  A    between atoms: C_9  and  C_10 
ROOT
HETATM    1  C   UNL     1       2.054  -1.368  -0.023  1.00  0.00     0.067 C 
HETATM    2  C   UNL     1       2.214  -2.728   0.091  1.00  0.00     0.043 C 
ENDROOT
BRANCH   1   3
HETATM    3  N   UNL     1       0.697  -0.884   0.013  1.00  0.00    -0.228 N 
HETATM    4  N   UNL     1      -0.398  -1.718   0.122  1.00  0.00    -0.160 NA
HETATM    5  C   UNL     1      -1.443  -0.903   0.062  1.00  0.00     0.256 A 
HETATM    6  N   UNL     1      -1.146   0.406  -0.052  1.00  0.00    -0.233 NA
HETATM    7  C   UNL     1       0.166   0.395  -0.072  1.00  0.00     0.236 A 
ENDBRANCH   1   3
BRANCH   1   8
HETATM    8  C   UNL     1       3.277  -0.467  -0.232  1.00  0.00     0.177 C 
BRANCH   8   9
HETATM    9  O   UNL     1       3.852  -0.795  -1.510  1.00  0.00    -0.389 OA
HETATM   10  H   UNL     1       3.237  -1.367  -2.003  1.00  0.00     0.210 HD
ENDBRANCH   8   9
BRANCH   8  11
HETATM   11  C   UNL     1       3.455   1.083  -0.065  1.00  0.00    -0.020 C 
HETATM   12  C   UNL     1       2.894   1.861  -1.278  1.00  0.00     0.017 C 
HETATM   13  C   UNL     1       2.940   1.586   1.298  1.00  0.00     0.017 C 
HETATM   14  C   UNL     1       4.985   1.405  -0.060  1.00  0.00     0.017 C 
ENDBRANCH   8  11
ENDBRANCH   1   8
BRANCH   2  15
HETATM   15  C   UNL     1       3.329  -3.730   0.001  1.00  0.00    -0.012 A 
HETATM   16  C   UNL     1       3.042  -5.120  -0.098  1.00  0.00     0.045 A 
HETATM   17  C   UNL     1       4.057  -6.086  -0.186  1.00  0.00     0.048 A 
HETATM   18 CL   UNL     1       1.425  -5.760  -0.147  1.00  0.00    -0.083 Cl
HETATM   19  C   UNL     1       5.386  -5.696  -0.180  1.00  0.00     0.035 A 
HETATM   20  C   UNL     1       5.707  -4.351  -0.081  1.00  0.00     0.024 A 
HETATM   21 CL   UNL     1       6.633  -6.872  -0.301  1.00  0.00    -0.084 Cl
HETATM   22  C   UNL     1       4.692  -3.387   0.013  1.00  0.00     0.015 A 
ENDBRANCH   2  15
TORSDOF 5
