REMARK  3 active torsions:
REMARK  status: ('A' for Active; 'I' for Inactive)
REMARK    1  A    between atoms: S_1  and  N_2 
REMARK    2  A    between atoms: N_3  and  C_4 
REMARK    3  A    between atoms: C_7  and  N_10 
ROOT
HETATM    1  C   UNL     1       0.260  -2.520   2.990  1.00  0.00     0.080 A 
HETATM    2  C   UNL     1       0.498  -3.870   3.228  1.00  0.00     0.036 A 
HETATM    3  C   UNL     1       0.024  -4.504   4.390  1.00  0.00     0.031 A 
HETATM    4  C   UNL     1      -0.718  -3.831   5.375  1.00  0.00     0.029 A 
HETATM    5  C   UNL     1      -0.952  -2.470   5.108  1.00  0.00     0.031 A 
HETATM    6  C   UNL     1      -0.473  -1.824   3.952  1.00  0.00     0.036 A 
ENDROOT
BRANCH   1   7
HETATM    7  N   UNL     1       0.799  -1.962   1.813  1.00  0.00    -0.137 NA
HETATM    8  N   UNL     1       0.348  -0.826   1.545  1.00  0.00    -0.037 NA
BRANCH   8   9
HETATM    9  S   UNL     1       0.940  -0.160   0.140  1.00  0.00     0.249 S 
HETATM   10  O   UNL     1       0.370   1.187   0.126  1.00  0.00    -0.575 OA
HETATM   11  O   UNL     1       0.434  -1.021  -0.932  1.00  0.00    -0.575 OA
HETATM   12  O   UNL     1       2.398  -0.177   0.280  1.00  0.00    -0.575 OA
ENDBRANCH   8   9
ENDBRANCH   1   7
BRANCH   4  13
HETATM   13  N   UNL     1      -1.116  -4.444   6.560  1.00  0.00    -0.390 N 
HETATM   14  C   UNL     1      -1.166  -5.903   6.695  1.00  0.00     0.149 C 
HETATM   15  C   UNL     1      -1.977  -3.756   7.526  1.00  0.00     0.149 C 
ENDBRANCH   4  13
TORSDOF 3
