REMARK  5 active torsions:
REMARK  status: ('A' for Active; 'I' for Inactive)
REMARK    1  A    between atoms: C_1  and  C_3 
REMARK    2  A    between atoms: C_1  and  O_4 
REMARK    3  A    between atoms: O_4  and  C_10 
REMARK    4  A    between atoms: C_10  and  C_11 
REMARK    5  A    between atoms: C_11  and  C_12 
ROOT
HETATM    1  C   UNL     1       1.018   0.056   0.118  1.00  0.00     0.293 C 
HETATM    2  O   UNL     1       0.434   1.037  -0.315  1.00  0.00    -0.259 OA
ENDROOT
BRANCH   1   3
HETATM    3  C   UNL     1       0.377  -0.956   0.992  1.00  0.00     0.039 A 
HETATM    4  C   UNL     1       0.818  -2.284   1.036  1.00  0.00     0.017 A 
HETATM    5  C   UNL     1       0.170  -3.205   1.861  1.00  0.00     0.001 A 
HETATM    6  C   UNL     1      -0.912  -2.803   2.645  1.00  0.00     0.000 A 
HETATM    7  C   UNL     1      -1.355  -1.481   2.602  1.00  0.00     0.001 A 
HETATM    8  C   UNL     1      -0.717  -0.559   1.771  1.00  0.00     0.017 A 
ENDBRANCH   1   3
BRANCH   1   9
HETATM    9  O   UNL     1       2.327  -0.247  -0.070  1.00  0.00    -0.318 OA
BRANCH   9  10
HETATM   10  C   UNL     1       3.039   0.705  -0.874  1.00  0.00     0.179 C 
BRANCH  10  11
HETATM   11  C   UNL     1       4.535   0.483  -0.678  1.00  0.00     0.026 C 
BRANCH  11  12
HETATM   12  C   UNL     1       5.355   1.417  -1.565  1.00  0.00    -0.002 C 
HETATM   13  C   UNL     1       6.848   1.231  -1.351  1.00  0.00     0.005 C 
ENDBRANCH  11  12
ENDBRANCH  10  11
ENDBRANCH   9  10
ENDBRANCH   1   9
TORSDOF 5
