REMARK  12 active torsions:
REMARK  status: ('A' for Active; 'I' for Inactive)
REMARK    1  A    between atoms: C_1  and  C_4 
REMARK    2  A    between atoms: C_1  and  C_3 
REMARK    3  A    between atoms: C_1  and  O_12 
REMARK    4  A    between atoms: C_1  and  C_2 
REMARK    5  A    between atoms: C_2  and  C_9 
REMARK    6  A    between atoms: C_3  and  C_6 
REMARK    7  A    between atoms: C_4  and  O_5 
REMARK    8  A    between atoms: O_5  and  C_16 
REMARK    9  A    between atoms: C_6  and  O_7 
REMARK   10  A    between atoms: O_7  and  C_18 
REMARK   11  A    between atoms: C_9  and  O_11 
REMARK   12  A    between atoms: O_11  and  C_14 
ROOT
HETATM    1  C   UNL     1       1.161  -0.600  -0.003  1.00  0.00     0.162 C 
ENDROOT
BRANCH   1   2
HETATM    2  C   UNL     1       0.165   0.471  -0.521  1.00  0.00     0.294 C 
HETATM    3  O   UNL     1       0.091   1.575   0.019  1.00  0.00    -0.262 OA
BRANCH   2   4
HETATM    4  O   UNL     1      -0.515   0.214  -1.657  1.00  0.00    -0.319 OA
BRANCH   4   5
HETATM    5  C   UNL     1      -1.669  -0.646  -1.609  1.00  0.00     0.174 C 
HETATM    6  C   UNL     1      -2.288  -0.656  -2.999  1.00  0.00     0.034 C 
ENDBRANCH   4   5
ENDBRANCH   2   4
ENDBRANCH   1   2
BRANCH   1   7
HETATM    7  C   UNL     1       1.168  -1.942  -0.751  1.00  0.00     0.160 C 
BRANCH   7   8
HETATM    8  C   UNL     1       1.234  -1.874  -2.262  1.00  0.00     0.262 C 
HETATM    9  O   UNL     1       0.538  -2.554  -3.003  1.00  0.00    -0.265 OA
BRANCH   8  10
HETATM   10  O   UNL     1       2.208  -1.049  -2.704  1.00  0.00    -0.322 OA
BRANCH  10  11
HETATM   11  C   UNL     1       1.768   0.140  -3.373  1.00  0.00     0.174 C 
HETATM   12  C   UNL     1       2.746   0.548  -4.451  1.00  0.00     0.034 C 
ENDBRANCH  10  11
ENDBRANCH   8  10
ENDBRANCH   7   8
ENDBRANCH   1   7
BRANCH   1  13
HETATM   13  O   UNL     1       0.635  -0.879   1.328  1.00  0.00    -0.379 OA
HETATM   14  H   UNL     1       0.538  -0.019   1.787  1.00  0.00     0.211 HD
ENDBRANCH   1  13
BRANCH   1  15
HETATM   15  C   UNL     1       2.560   0.060   0.198  1.00  0.00     0.160 C 
BRANCH  15  16
HETATM   16  C   UNL     1       3.747  -0.826  -0.134  1.00  0.00     0.262 C 
HETATM   17  O   UNL     1       4.071  -1.801   0.514  1.00  0.00    -0.265 OA
BRANCH  16  18
HETATM   18  O   UNL     1       4.329  -0.426  -1.299  1.00  0.00    -0.322 OA
BRANCH  18  19
HETATM   19  C   UNL     1       5.113  -1.414  -1.993  1.00  0.00     0.174 C 
HETATM   20  C   UNL     1       6.573  -1.029  -1.980  1.00  0.00     0.034 C 
ENDBRANCH  18  19
ENDBRANCH  16  18
ENDBRANCH  15  16
ENDBRANCH   1  15
TORSDOF 12
