REMARK  12 active torsions:
REMARK  status: ('A' for Active; 'I' for Inactive)
REMARK    1  A    between atoms: C_1  and  O_10 
REMARK    2  A    between atoms: C_2  and  C_5 
REMARK    3  A    between atoms: C_3  and  O_11 
REMARK    4  A    between atoms: C_4  and  O_12 
REMARK    5  A    between atoms: C_5  and  O_9 
REMARK    6  A    between atoms: O_9  and  C_13 
REMARK    7  A    between atoms: C_13  and  C_14 
REMARK    8  A    between atoms: C_14  and  C_15 
REMARK    9  A    between atoms: C_15  and  C_16 
REMARK   10  A    between atoms: C_16  and  C_17 
REMARK   11  A    between atoms: C_17  and  C_18 
REMARK   12  A    between atoms: C_18  and  C_19 
ROOT
HETATM    1  C   UNL     1      -0.688   1.175  -0.011  1.00  0.00     0.132 A 
HETATM    2  C   UNL     1       0.739  -1.231   0.016  1.00  0.00     0.044 A 
HETATM    3  C   UNL     1      -1.369  -0.037   0.029  1.00  0.00     0.102 A 
HETATM    4  C   UNL     1       0.703   1.183  -0.036  1.00  0.00     0.102 A 
HETATM    5  C   UNL     1       1.422  -0.005  -0.021  1.00  0.00     0.057 A 
HETATM    6  C   UNL     1      -0.666  -1.242   0.047  1.00  0.00     0.057 A 
ENDROOT
BRANCH   2   7
HETATM    7  C   UNL     1       1.553  -2.475   0.016  1.00  0.00     0.293 C 
HETATM    8  O   UNL     1       2.776  -2.470   0.011  1.00  0.00    -0.259 OA
BRANCH   7   9
HETATM    9  O   UNL     1       0.771  -3.585   0.016  1.00  0.00    -0.318 OA
BRANCH   9  10
HETATM   10  C   UNL     1       1.524  -4.807   0.013  1.00  0.00     0.179 C 
BRANCH  10  11
HETATM   11  C   UNL     1       0.561  -5.991   0.015  1.00  0.00     0.027 C 
BRANCH  11  12
HETATM   12  C   UNL     1       1.322  -7.317   0.017  1.00  0.00     0.002 C 
BRANCH  12  13
HETATM   13  C   UNL     1       0.375  -8.518   0.020  1.00  0.00     0.000 C 
BRANCH  13  14
HETATM   14  C   UNL     1       1.151  -9.837   0.024  1.00  0.00     0.000 C 
BRANCH  14  15
HETATM   15  C   UNL     1       0.207 -11.040   0.027  1.00  0.00    -0.000 C 
BRANCH  15  16
HETATM   16  C   UNL     1       0.981 -12.359   0.031  1.00  0.00    -0.005 C 
HETATM   17  C   UNL     1       0.042 -13.555   0.034  1.00  0.00     0.005 C 
ENDBRANCH  15  16
ENDBRANCH  14  15
ENDBRANCH  13  14
ENDBRANCH  12  13
ENDBRANCH  11  12
ENDBRANCH  10  11
ENDBRANCH   9  10
ENDBRANCH   7   9
ENDBRANCH   2   7
BRANCH   4  18
HETATM   18  O   UNL     1       1.383   2.366  -0.055  1.00  0.00    -0.358 OA
HETATM   19  H   UNL     1       0.694   3.059  -0.060  1.00  0.00     0.217 HD
ENDBRANCH   4  18
BRANCH   3  20
HETATM   20  O   UNL     1      -2.733  -0.091   0.044  1.00  0.00    -0.358 OA
HETATM   21  H   UNL     1      -3.072   0.653  -0.481  1.00  0.00     0.217 HD
ENDBRANCH   3  20
BRANCH   1  22
HETATM   22  O   UNL     1      -1.334   2.381  -0.003  1.00  0.00    -0.356 OA
HETATM   23  H   UNL     1      -2.180   2.256   0.462  1.00  0.00     0.218 HD
ENDBRANCH   1  22
TORSDOF 12
