REMARK  6 active torsions:
REMARK  status: ('A' for Active; 'I' for Inactive)
REMARK    1  A    between atoms: C_3  and  C_14 
REMARK    2  A    between atoms: C_3  and  O_28 
REMARK    3  A    between atoms: C_8  and  O_23 
REMARK    4  A    between atoms: C_9  and  O_24 
REMARK    5  A    between atoms: C_14  and  C_26 
REMARK    6  A    between atoms: C_26  and  O_27 
ROOT
HETATM    1  C   UNL     1      -1.281   2.749  -1.389  1.00  0.00     0.003 C 
HETATM    2  C   UNL     1       1.268   1.076  -1.047  1.00  0.00     0.144 C 
HETATM    3  C   UNL     1      -2.575   3.171  -2.222  1.00  0.00     0.153 C 
HETATM    4  C   UNL     1       2.280   0.245  -0.144  1.00  0.00     0.022 C 
HETATM    5  C   UNL     1      -1.117   1.262  -1.812  1.00  0.00     0.007 C 
HETATM    6  C   UNL     1      -0.146   0.435  -0.974  1.00  0.00     0.034 C 
HETATM    7  C   UNL     1       2.384  -1.179  -0.765  1.00  0.00    -0.005 C 
HETATM    8  C   UNL     1       1.249   2.639  -0.909  1.00  0.00     0.160 C 
HETATM    9  C   UNL     1      -3.029   1.881  -2.947  1.00  0.00     0.161 C 
HETATM   10  C   UNL     1       0.101   3.352  -1.713  1.00  0.00     0.048 C 
HETATM   11  C   UNL     1       1.890  -0.033   1.321  1.00  0.00    -0.010 C 
HETATM   12  C   UNL     1      -2.533   0.765  -2.030  1.00  0.00     0.041 C 
HETATM   13  C   UNL     1       3.348  -1.989  -0.269  1.00  0.00     0.082 C 
HETATM   14  C   UNL     1      -0.088  -0.992  -1.545  1.00  0.00     0.009 C 
HETATM   15  C   UNL     1       2.278  -1.176   1.934  1.00  0.00     0.047 C 
HETATM   16  C   UNL     1       3.118  -2.198   1.214  1.00  0.00     0.154 C 
HETATM   17  C   UNL     1       1.043  -1.867  -1.022  1.00  0.00     0.013 C 
HETATM   18  F   UNL     1       1.696   0.903  -2.364  1.00  0.00    -0.239 F 
HETATM   19  O   UNL     1       3.635  -3.137   1.806  1.00  0.00    -0.293 OA
HETATM   20  C   UNL     1      -1.545   2.982   0.121  1.00  0.00     0.019 C 
HETATM   21  C   UNL     1       3.651   0.960  -0.056  1.00  0.00     0.024 C 
ENDROOT
BRANCH   3  22
HETATM   22  C   UNL     1      -2.530   4.451  -3.063  1.00  0.00     0.187 C 
HETATM   23  O   UNL     1      -2.494   5.539  -2.471  1.00  0.00    -0.292 OA
BRANCH  22  24
HETATM   24  C   UNL     1      -2.667   4.379  -4.586  1.00  0.00     0.245 C 
BRANCH  24  25
HETATM   25  O   UNL     1      -3.378   5.479  -5.134  1.00  0.00    -0.393 OA
HETATM   26  H   UNL     1      -4.264   5.482  -4.727  1.00  0.00     0.209 HD
ENDBRANCH  24  25
ENDBRANCH  22  24
ENDBRANCH   3  22
BRANCH   3  27
HETATM   27  O   UNL     1      -3.684   3.462  -1.308  1.00  0.00    -0.378 OA
HETATM   28  H   UNL     1      -3.555   4.390  -1.012  1.00  0.00     0.211 HD
ENDBRANCH   3  27
BRANCH   9  29
HETATM   29  O   UNL     1      -4.433   1.814  -3.124  1.00  0.00    -0.392 OA
HETATM   30  H   UNL     1      -4.815   2.170  -2.294  1.00  0.00     0.210 HD
ENDBRANCH   9  29
BRANCH   8  31
HETATM   31  O   UNL     1       2.473   3.196  -1.413  1.00  0.00    -0.392 OA
HETATM   32  H   UNL     1       2.676   2.722  -2.244  1.00  0.00     0.210 HD
ENDBRANCH   8  31
TORSDOF 6
