REMARK  3 active torsions:
REMARK  status: ('A' for Active; 'I' for Inactive)
REMARK    1  A    between atoms: O_1  and  C_2 
REMARK    2  A    between atoms: C_5  and  O_12 
REMARK    3  A    between atoms: C_7  and  C_8 
ROOT
HETATM    1  C   UNL     1       2.399   0.042  -0.010  1.00  0.00     0.072 A 
HETATM    2  C   UNL     1       3.141   1.229  -0.011  1.00  0.00     0.040 A 
HETATM    3  C   UNL     1       4.527   1.190  -0.136  1.00  0.00     0.039 A 
HETATM    4  C   UNL     1       5.184  -0.028  -0.259  1.00  0.00     0.068 A 
HETATM    5  C   UNL     1       4.435  -1.209  -0.248  1.00  0.00     0.047 A 
HETATM    6  C   UNL     1       3.019  -1.213  -0.134  1.00  0.00    -0.015 A 
ENDROOT
BRANCH   6   7
HETATM    7  C   UNL     1       2.289  -2.577  -0.147  1.00  0.00    -0.021 C 
HETATM    8  C   UNL     1       2.658  -3.349  -1.438  1.00  0.00     0.019 C 
HETATM    9  C   UNL     1       2.739  -3.403   1.080  1.00  0.00     0.019 C 
HETATM   10  C   UNL     1       0.746  -2.529  -0.105  1.00  0.00     0.019 C 
ENDBRANCH   6   7
BRANCH   1  11
HETATM   11  O   UNL     1       1.044   0.147   0.120  1.00  0.00    -0.360 OA
HETATM   12  H   UNL     1       0.798   1.083   0.193  1.00  0.00     0.217 HD
ENDBRANCH   1  11
BRANCH   4  13
HETATM   13  O   UNL     1       6.543   0.065  -0.377  1.00  0.00    -0.356 OA
HETATM   14  C   UNL     1       7.255  -1.144  -0.607  1.00  0.00     0.210 C 
ENDBRANCH   4  13
TORSDOF 3
