REMARK  4 active torsions:
REMARK  status: ('A' for Active; 'I' for Inactive)
REMARK    1  A    between atoms: C_4  and  C_18 
REMARK    2  A    between atoms: C_5  and  C_11 
REMARK       I    between atoms: C_11  and  N_13 
REMARK    3  A    between atoms: N_13  and  C_22 
REMARK    4  A    between atoms: C_22  and  C_23 
ROOT
HETATM    1  N   UNL     1       2.303  -0.846  -0.325  1.00  0.00    -0.242 NA
HETATM    2  C   UNL     1      -0.136  -0.757  -0.105  1.00  0.00     0.004 A 
HETATM    3  C   UNL     1      -0.072   0.649  -0.156  1.00  0.00    -0.021 A 
HETATM    4  C   UNL     1       1.092  -1.455  -0.199  1.00  0.00     0.080 A 
HETATM    5  C   UNL     1       2.330   0.503  -0.354  1.00  0.00     0.126 A 
HETATM    6  C   UNL     1       1.172   1.273  -0.280  1.00  0.00     0.049 A 
HETATM    7  C   UNL     1      -1.410  -1.363   0.030  1.00  0.00     0.014 A 
HETATM    8  C   UNL     1      -1.253   1.408  -0.084  1.00  0.00     0.012 A 
HETATM    9  C   UNL     1      -2.497   0.789   0.039  1.00  0.00     0.001 A 
HETATM   10  C   UNL     1      -2.575  -0.597   0.098  1.00  0.00     0.001 A 
ENDROOT
BRANCH   5  11
HETATM   11  C   UNL     1       3.643   1.227  -0.494  1.00  0.00     0.272 C 
HETATM   12  O   UNL     1       3.572   2.401  -0.881  1.00  0.00    -0.266 OA
HETATM   13  N   UNL     1       4.891   0.652  -0.172  1.00  0.00    -0.347 N 
HETATM   14  C   UNL     1       5.099  -0.730   0.253  1.00  0.00     0.153 C 
BRANCH  13  15
HETATM   15  C   UNL     1       6.083   1.532  -0.249  1.00  0.00     0.082 C 
HETATM   16  C   UNL     1       7.352   0.805  -0.720  1.00  0.00     0.032 C 
BRANCH  15  17
HETATM   17  C   UNL     1       6.359   2.227   1.104  1.00  0.00     0.020 C 
HETATM   18  C   UNL     1       5.351   3.313   1.459  1.00  0.00     0.007 C 
ENDBRANCH  15  17
ENDBRANCH  13  15
ENDBRANCH   5  11
BRANCH   4  19
HETATM   19  C   UNL     1       1.182  -2.921  -0.151  1.00  0.00     0.015 A 
HETATM   20  C   UNL     1       1.445  -3.558   1.078  1.00  0.00     0.015 A 
HETATM   21  C   UNL     1       1.541  -4.949   1.163  1.00  0.00     0.001 A 
HETATM   22  C   UNL     1       1.382  -5.728   0.020  1.00  0.00     0.002 A 
HETATM   23  C   UNL     1       1.126  -5.116  -1.207  1.00  0.00     0.025 A 
HETATM   24  C   UNL     1       1.027  -3.723  -1.294  1.00  0.00     0.046 A 
HETATM   25 CL   UNL     1       0.701  -3.040  -2.850  1.00  0.00    -0.083 Cl
ENDBRANCH   4  19
TORSDOF 4
