REMARK  4 active torsions:
REMARK  status: ('A' for Active; 'I' for Inactive)
REMARK    1  A    between atoms: C_1  and  O_7 
REMARK    2  A    between atoms: C_3  and  C_13 
REMARK    3  A    between atoms: C_4  and  O_8 
REMARK    4  A    between atoms: C_6  and  C_9 
ROOT
HETATM    1  C   UNL     1      -1.408  -0.046  -0.108  1.00  0.00     0.073 A 
HETATM    2  C   UNL     1      -0.717   1.184  -0.108  1.00  0.00     0.047 A 
HETATM    3  C   UNL     1       0.691   1.273  -0.130  1.00  0.00    -0.015 A 
HETATM    4  C   UNL     1       1.363   0.042  -0.117  1.00  0.00     0.073 A 
HETATM    5  C   UNL     1       0.672  -1.180  -0.111  1.00  0.00     0.047 A 
HETATM    6  C   UNL     1      -0.734  -1.267  -0.134  1.00  0.00    -0.015 A 
ENDROOT
BRANCH   3   7
HETATM    7  C   UNL     1       1.385   2.652  -0.187  1.00  0.00    -0.021 C 
HETATM    8  C   UNL     1       2.328   2.856   1.020  1.00  0.00     0.019 C 
HETATM    9  C   UNL     1       2.158   2.800  -1.518  1.00  0.00     0.019 C 
HETATM   10  C   UNL     1       0.400   3.854  -0.145  1.00  0.00     0.019 C 
ENDBRANCH   3   7
BRANCH   4  11
HETATM   11  O   UNL     1       2.721  -0.114  -0.122  1.00  0.00    -0.360 OA
HETATM   12  H   UNL     1       3.158   0.735  -0.252  1.00  0.00     0.217 HD
ENDBRANCH   4  11
BRANCH   1  13
HETATM   13  O   UNL     1      -2.773  -0.002  -0.085  1.00  0.00    -0.360 OA
HETATM   14  H   UNL     1      -3.072   0.919  -0.034  1.00  0.00     0.217 HD
ENDBRANCH   1  13
BRANCH   6  15
HETATM   15  C   UNL     1      -1.385  -2.664  -0.198  1.00  0.00    -0.021 C 
HETATM   16  C   UNL     1      -0.844  -3.426  -1.434  1.00  0.00     0.019 C 
HETATM   17  C   UNL     1      -1.023  -3.458   1.079  1.00  0.00     0.019 C 
HETATM   18  C   UNL     1      -2.925  -2.695  -0.319  1.00  0.00     0.019 C 
ENDBRANCH   6  15
TORSDOF 4
