REMARK  12 active torsions:
REMARK  status: ('A' for Active; 'I' for Inactive)
REMARK    1  A    between atoms: N_1  and  C_9 
REMARK    2  A    between atoms: C_9  and  C_10 
REMARK    3  A    between atoms: C_10  and  C_11 
REMARK    4  A    between atoms: C_11  and  C_12 
REMARK    5  A    between atoms: C_12  and  C_13 
REMARK    6  A    between atoms: C_13  and  C_14 
REMARK    7  A    between atoms: C_14  and  C_15 
REMARK    8  A    between atoms: C_15  and  C_16 
REMARK    9  A    between atoms: C_16  and  C_17 
REMARK   10  A    between atoms: C_17  and  C_18 
REMARK   11  A    between atoms: C_18  and  C_19 
REMARK   12  A    between atoms: C_19  and  C_20 
ROOT
HETATM    1  C   UNL     1       2.206   1.548  -3.712  1.00  0.00     0.002 C 
ENDROOT
BRANCH   1   2
HETATM    2  C   UNL     1       2.193   1.431  -2.186  1.00  0.00     0.030 C 
BRANCH   2   3
HETATM    3  C   UNL     1       0.754   1.339  -1.662  1.00  0.00     0.272 C 
BRANCH   3   4
HETATM    4  N   UNL     1       0.656   1.182  -0.201  1.00  0.00     0.093 N 
HETATM    5  C   UNL     1       1.285  -0.056   0.316  1.00  0.00     0.303 C 
HETATM    6  C   UNL     1       0.537  -1.343  -0.092  1.00  0.00     0.146 C 
HETATM    7  O   UNL     1      -0.821  -1.302   0.378  1.00  0.00    -0.378 OA
HETATM    8  C   UNL     1       1.203  -2.573   0.511  1.00  0.00     0.041 C 
HETATM    9  C   UNL     1      -1.511  -0.148  -0.133  1.00  0.00     0.146 C 
HETATM   10  C   UNL     1      -0.765   1.160   0.229  1.00  0.00     0.303 C 
HETATM   11  C   UNL     1      -2.915  -0.155   0.456  1.00  0.00     0.041 C 
ENDBRANCH   3   4
ENDBRANCH   2   3
ENDBRANCH   1   2
BRANCH   1  12
HETATM   12  C   UNL     1       3.634   1.538  -4.252  1.00  0.00     0.000 C 
BRANCH  12  13
HETATM   13  C   UNL     1       3.648   1.546  -5.780  1.00  0.00     0.000 C 
BRANCH  13  14
HETATM   14  C   UNL     1       5.079   1.542  -6.313  1.00  0.00     0.000 C 
BRANCH  14  15
HETATM   15  C   UNL     1       5.103   1.553  -7.840  1.00  0.00     0.000 C 
BRANCH  15  16
HETATM   16  C   UNL     1       6.537   1.583  -8.366  1.00  0.00     0.000 C 
BRANCH  16  17
HETATM   17  C   UNL     1       6.568   1.616  -9.893  1.00  0.00     0.000 C 
BRANCH  17  18
HETATM   18  C   UNL     1       8.004   1.663 -10.415  1.00  0.00     0.000 C 
BRANCH  18  19
HETATM   19  C   UNL     1       8.036   1.703 -11.943  1.00  0.00    -0.000 C 
BRANCH  19  20
HETATM   20  C   UNL     1       9.471   1.753 -12.465  1.00  0.00    -0.005 C 
HETATM   21  C   UNL     1       9.507   1.792 -13.984  1.00  0.00     0.005 C 
ENDBRANCH  19  20
ENDBRANCH  18  19
ENDBRANCH  17  18
ENDBRANCH  16  17
ENDBRANCH  15  16
ENDBRANCH  14  15
ENDBRANCH  13  14
ENDBRANCH  12  13
ENDBRANCH   1  12
TORSDOF 12
