REMARK  2 active torsions:
REMARK  status: ('A' for Active; 'I' for Inactive)
REMARK    1  A    between atoms: C_1  and  C_3 
REMARK       I    between atoms: C_1  and  N_9 
REMARK    2  A    between atoms: N_9  and  C_11 
ROOT
HETATM    1  C   UNL     1       0.712   0.264   0.151  1.00  0.00     0.257 C 
HETATM    2  O   UNL     1      -0.015   1.136  -0.309  1.00  0.00    -0.267 OA
HETATM    3  N   UNL     1       2.008  -0.022  -0.245  1.00  0.00    -0.323 N 
HETATM    4  H   UNL     1       2.442  -0.853   0.134  1.00  0.00     0.169 HD
ENDROOT
BRANCH   1   5
HETATM    5  C   UNL     1       0.167  -0.648   1.194  1.00  0.00     0.048 A 
HETATM    6  C   UNL     1      -0.491  -0.179   2.342  1.00  0.00     0.022 A 
HETATM    7  C   UNL     1      -1.021  -1.095   3.263  1.00  0.00     0.019 A 
HETATM    8  I   UNL     1      -0.685   1.852   2.845  1.00  0.00    -0.043 I 
HETATM    9  C   UNL     1      -0.889  -2.469   3.050  1.00  0.00     0.001 A 
HETATM   10  C   UNL     1      -0.234  -2.939   1.915  1.00  0.00     0.001 A 
HETATM   11  C   UNL     1       0.283  -2.035   0.985  1.00  0.00     0.018 A 
ENDBRANCH   1   5
BRANCH   3  12
HETATM   12  C   UNL     1       2.783   0.706  -1.173  1.00  0.00     0.035 A 
HETATM   13  C   UNL     1       2.458   1.993  -1.607  1.00  0.00     0.029 A 
HETATM   14  C   UNL     1       3.284   2.665  -2.514  1.00  0.00     0.002 A 
HETATM   15  C   UNL     1       4.433   2.049  -3.004  1.00  0.00     0.000 A 
HETATM   16  C   UNL     1       4.766   0.766  -2.578  1.00  0.00     0.002 A 
HETATM   17  C   UNL     1       3.951   0.102  -1.656  1.00  0.00     0.029 A 
ENDBRANCH   3  12
TORSDOF 2
