REMARK  4 active torsions:
REMARK  status: ('A' for Active; 'I' for Inactive)
REMARK    1  A    between atoms: C_1  and  C_2 
REMARK       I    between atoms: C_1  and  N_5 
REMARK    2  A    between atoms: N_5  and  C_8 
REMARK    3  A    between atoms: N_5  and  C_11 
REMARK    4  A    between atoms: C_11  and  C_12 
ROOT
HETATM    1  C   UNL     1       0.866  -0.078   0.064  1.00  0.00     0.228 C 
HETATM    2  O   UNL     1       2.070  -0.344   0.184  1.00  0.00    -0.273 OA
HETATM    3  N   UNL     1       0.287   0.928   0.856  1.00  0.00    -0.343 N 
ENDROOT
BRANCH   3   4
HETATM    4  C   UNL     1       1.125   1.647   1.871  1.00  0.00     0.079 C 
HETATM    5  C   UNL     1       0.984   1.047   3.273  1.00  0.00     0.032 C 
HETATM    6  C   UNL     1       2.620   1.828   1.558  1.00  0.00     0.032 C 
ENDBRANCH   3   4
BRANCH   3   7
HETATM    7  C   UNL     1      -1.172   1.161   0.868  1.00  0.00     0.164 C 
BRANCH   7   8
HETATM    8  C   UNL     1      -1.772   2.187   1.808  1.00  0.00    -0.040 A 
HETATM    9  C   UNL     1      -2.588   1.780   2.877  1.00  0.00     0.009 A 
HETATM   10  C   UNL     1      -3.121   2.717   3.764  1.00  0.00     0.001 A 
HETATM   11  C   UNL     1      -2.849   4.072   3.591  1.00  0.00     0.000 A 
HETATM   12  C   UNL     1      -2.072   4.494   2.515  1.00  0.00     0.001 A 
HETATM   13  C   UNL     1      -1.556   3.560   1.615  1.00  0.00     0.009 A 
ENDBRANCH   7   8
ENDBRANCH   3   7
BRANCH   1  14
HETATM   14  C   UNL     1       0.053  -0.949  -0.962  1.00  0.00     0.030 C 
HETATM   15  C   UNL     1      -0.827  -1.979  -0.239  1.00  0.00     0.025 C 
HETATM   16  C   UNL     1      -0.756  -0.154  -1.996  1.00  0.00     0.025 C 
HETATM   17  C   UNL     1       1.090  -1.769  -1.788  1.00  0.00     0.025 C 
ENDBRANCH   1  14
TORSDOF 4
