REMARK  17 active torsions:
REMARK  status: ('A' for Active; 'I' for Inactive)
REMARK    1  A    between atoms: C_1  and  C_2 
REMARK    2  A    between atoms: C_1  and  C_3 
REMARK    3  A    between atoms: C_2  and  O_4 
REMARK    4  A    between atoms: C_3  and  C_6 
REMARK    5  A    between atoms: O_4  and  C_7 
REMARK    6  A    between atoms: C_6  and  C_8 
REMARK    7  A    between atoms: C_7  and  C_9 
REMARK    8  A    between atoms: C_8  and  C_10 
REMARK    9  A    between atoms: C_9  and  C_11 
REMARK   10  A    between atoms: C_10  and  C_12 
REMARK   11  A    between atoms: C_12  and  C_14 
REMARK   12  A    between atoms: C_14  and  C_15 
REMARK   13  A    between atoms: C_15  and  C_16 
REMARK   14  A    between atoms: C_16  and  O_17 
REMARK   15  A    between atoms: O_17  and  C_19 
REMARK   16  A    between atoms: C_19  and  C_20 
REMARK   17  A    between atoms: C_20  and  C_21 
ROOT
HETATM    1  C   UNL     1       4.550  -1.406   0.251  1.00  0.00     0.000 C 
ENDROOT
BRANCH   1   2
HETATM    2  C   UNL     1       3.010  -1.505   0.271  1.00  0.00     0.000 C 
BRANCH   2   3
HETATM    3  C   UNL     1       2.522  -0.096  -0.009  1.00  0.00     0.010 C 
BRANCH   3   4
HETATM    4  C   UNL     1       1.045   0.210  -0.070  1.00  0.00     0.111 C 
BRANCH   4   5
HETATM    5  C   UNL     1       0.582   1.647  -0.356  1.00  0.00     0.258 C 
HETATM    6  O   UNL     1      -0.635   1.856  -0.398  1.00  0.00    -0.265 OA
BRANCH   5   7
HETATM    7  O   UNL     1       1.417   2.698  -0.565  1.00  0.00    -0.321 OA
BRANCH   7   8
HETATM    8  C   UNL     1       2.847   2.646  -0.555  1.00  0.00     0.178 C 
BRANCH   8   9
HETATM    9  C   UNL     1       3.545   3.974  -0.819  1.00  0.00     0.026 C 
BRANCH   9  10
HETATM   10  C   UNL     1       5.059   3.711  -0.767  1.00  0.00    -0.002 C 
HETATM   11  C   UNL     1       5.895   4.948  -1.013  1.00  0.00     0.005 C 
ENDBRANCH   9  10
ENDBRANCH   8   9
ENDBRANCH   7   8
ENDBRANCH   5   7
ENDBRANCH   4   5
ENDBRANCH   3   4
ENDBRANCH   2   3
ENDBRANCH   1   2
BRANCH   1  12
HETATM   12  C   UNL     1       5.218  -2.730   0.515  1.00  0.00     0.000 C 
BRANCH  12  13
HETATM   13  C   UNL     1       6.757  -2.630   0.495  1.00  0.00     0.000 C 
BRANCH  13  14
HETATM   14  C   UNL     1       7.245  -4.039   0.775  1.00  0.00     0.010 C 
BRANCH  14  15
HETATM   15  C   UNL     1       8.723  -4.345   0.836  1.00  0.00     0.111 C 
BRANCH  15  16
HETATM   16  C   UNL     1       9.186  -5.783   1.122  1.00  0.00     0.258 C 
HETATM   17  O   UNL     1      10.403  -5.992   1.164  1.00  0.00    -0.265 OA
BRANCH  16  18
HETATM   18  O   UNL     1       8.351  -6.834   1.331  1.00  0.00    -0.321 OA
BRANCH  18  19
HETATM   19  C   UNL     1       6.921  -6.782   1.321  1.00  0.00     0.178 C 
BRANCH  19  20
HETATM   20  C   UNL     1       6.223  -8.109   1.585  1.00  0.00     0.026 C 
BRANCH  20  21
HETATM   21  C   UNL     1       4.709  -7.846   1.533  1.00  0.00    -0.002 C 
HETATM   22  C   UNL     1       3.873  -9.084   1.779  1.00  0.00     0.005 C 
ENDBRANCH  20  21
ENDBRANCH  19  20
ENDBRANCH  18  19
ENDBRANCH  16  18
ENDBRANCH  15  16
ENDBRANCH  14  15
ENDBRANCH  13  14
ENDBRANCH  12  13
ENDBRANCH   1  12
TORSDOF 17
