REMARK  6 active torsions:
REMARK  status: ('A' for Active; 'I' for Inactive)
REMARK    1  A    between atoms: C_1  and  O_3 
REMARK    2  A    between atoms: C_1  and  C_4 
REMARK    3  A    between atoms: O_3  and  C_7 
REMARK    4  A    between atoms: C_4  and  C_5 
REMARK    5  A    between atoms: C_7  and  C_9 
REMARK    6  A    between atoms: C_8  and  C_9 
ROOT
HETATM    1  O   UNL     1       0.289   0.762  -0.914  1.00  0.00    -0.321 OA
ENDROOT
BRANCH   1   2
HETATM    2  C   UNL     1       0.835  -0.108  -0.015  1.00  0.00     0.258 C 
HETATM    3  O   UNL     1       0.192  -0.828   0.738  1.00  0.00    -0.265 OA
BRANCH   2   4
HETATM    4  C   UNL     1       2.342  -0.045  -0.080  1.00  0.00     0.111 C 
BRANCH   4   5
HETATM    5  C   UNL     1       2.977  -1.011   0.921  1.00  0.00     0.005 C 
HETATM    6  C   UNL     1       4.494  -0.959   0.879  1.00  0.00     0.005 C 
ENDBRANCH   4   5
ENDBRANCH   2   4
ENDBRANCH   1   2
BRANCH   1   7
HETATM    7  C   UNL     1      -1.145   0.783  -0.875  1.00  0.00     0.179 C 
BRANCH   7   8
HETATM    8  C   UNL     1      -1.663   1.823  -1.866  1.00  0.00     0.031 C 
BRANCH   8   9
HETATM    9  C   UNL     1      -3.200   1.878  -1.931  1.00  0.00    -0.021 C 
HETATM   10  C   UNL     1      -3.828   2.278  -0.594  1.00  0.00     0.009 C 
HETATM   11  C   UNL     1      -3.649   2.853  -3.021  1.00  0.00     0.009 C 
ENDBRANCH   8   9
ENDBRANCH   7   8
ENDBRANCH   1   7
TORSDOF 6
