REMARK  3 active torsions:
REMARK  status: ('A' for Active; 'I' for Inactive)
REMARK    1  A    between atoms: C_3  and  N_7 
REMARK    2  A    between atoms: C_5  and  C_15 
REMARK    3  A    between atoms: N_7  and  C_9 
ROOT
HETATM    1  C   UNL     1       1.619   2.381  -0.022  1.00  0.00    -0.046 C 
HETATM    2  C   UNL     1       2.196   3.435  -0.016  1.00  0.00    -0.104 C 
HETATM    3  C   UNL     1       2.871   4.730   0.000  1.00  0.00     0.112 C 
ENDROOT
BRANCH   1   4
HETATM    4  C   UNL     1       0.892   1.153  -0.015  1.00  0.00     0.131 A 
HETATM    5  N   UNL     1      -0.437   1.307   0.003  1.00  0.00    -0.054 NA
HETATM    6  C   UNL     1      -1.189   0.204   0.030  1.00  0.00     0.728 A 
HETATM    7  N   UNL     1      -0.665  -1.036   0.030  1.00  0.00    -0.068 NA
HETATM    8  C   UNL     1       0.684  -1.153   0.007  1.00  0.00     0.052 A 
HETATM    9  C   UNL     1       1.521  -0.061  -0.015  1.00  0.00     0.069 A 
HETATM   10  C   UNL     1       1.269  -2.534   0.011  1.00  0.00     0.071 C 
BRANCH   6  11
HETATM   11  N   UNL     1      -2.581   0.293   0.034  1.00  0.00    -0.188 N 
HETATM   12  H   UNL     1      -2.990  -0.627  -0.013  1.00  0.00     0.184 HD
BRANCH  11  13
HETATM   13  C   UNL     1      -3.447   1.396   0.004  1.00  0.00     0.049 A 
HETATM   14  C   UNL     1      -4.799   1.200  -0.313  1.00  0.00     0.030 A 
HETATM   15  C   UNL     1      -5.683   2.280  -0.433  1.00  0.00     0.002 A 
HETATM   16  C   UNL     1      -5.228   3.581  -0.235  1.00  0.00     0.000 A 
HETATM   17  C   UNL     1      -3.898   3.798   0.099  1.00  0.00     0.002 A 
HETATM   18  C   UNL     1      -3.023   2.715   0.219  1.00  0.00     0.030 A 
ENDBRANCH  11  13
ENDBRANCH   6  11
ENDBRANCH   1   4
TORSDOF 3
