REMARK  14 active torsions:
REMARK  status: ('A' for Active; 'I' for Inactive)
REMARK    1  A    between atoms: N_1  and  C_3 
REMARK    2  A    between atoms: N_1  and  C_11 
REMARK    3  A    between atoms: C_3  and  C_4 
REMARK    4  A    between atoms: C_4  and  C_5 
REMARK    5  A    between atoms: C_5  and  C_6 
REMARK    6  A    between atoms: C_6  and  C_7 
REMARK    7  A    between atoms: C_7  and  C_8 
REMARK    8  A    between atoms: C_8  and  C_9 
REMARK    9  A    between atoms: C_11  and  C_12 
REMARK   10  A    between atoms: C_12  and  C_13 
REMARK   11  A    between atoms: C_13  and  C_14 
REMARK   12  A    between atoms: C_14  and  C_15 
REMARK   13  A    between atoms: C_15  and  C_16 
REMARK   14  A    between atoms: C_16  and  C_17 
ROOT
HETATM    1  N   UNL     1       0.851  -0.021  -0.244  1.00  0.00     0.084 N 
HETATM    2  C   UNL     1       0.358  -0.326  -1.593  1.00  0.00     0.309 C 
ENDROOT
BRANCH   1   3
HETATM    3  C   UNL     1       0.357  -1.009   0.742  1.00  0.00     0.271 C 
BRANCH   3   4
HETATM    4  C   UNL     1      -1.169  -0.985   0.916  1.00  0.00     0.030 C 
BRANCH   4   5
HETATM    5  C   UNL     1      -1.642  -1.989   1.972  1.00  0.00     0.002 C 
BRANCH   5   6
HETATM    6  C   UNL     1      -3.172  -2.023   2.027  1.00  0.00     0.000 C 
BRANCH   6   7
HETATM    7  C   UNL     1      -3.691  -3.078   3.005  1.00  0.00     0.000 C 
BRANCH   7   8
HETATM    8  C   UNL     1      -5.221  -3.114   3.000  1.00  0.00    -0.000 C 
BRANCH   8   9
HETATM    9  C   UNL     1      -5.764  -4.176   3.955  1.00  0.00    -0.005 C 
HETATM   10  C   UNL     1      -7.285  -4.203   3.943  1.00  0.00     0.005 C 
ENDBRANCH   8   9
ENDBRANCH   7   8
ENDBRANCH   6   7
ENDBRANCH   5   6
ENDBRANCH   4   5
ENDBRANCH   3   4
ENDBRANCH   1   3
BRANCH   1  11
HETATM   11  C   UNL     1       2.330   0.011  -0.210  1.00  0.00     0.271 C 
BRANCH  11  12
HETATM   12  C   UNL     1       2.935   1.135  -1.064  1.00  0.00     0.030 C 
BRANCH  12  13
HETATM   13  C   UNL     1       4.464   1.167  -0.975  1.00  0.00     0.002 C 
BRANCH  13  14
HETATM   14  C   UNL     1       5.033   2.217  -1.932  1.00  0.00     0.000 C 
BRANCH  14  15
HETATM   15  C   UNL     1       6.562   2.221  -1.943  1.00  0.00     0.000 C 
BRANCH  15  16
HETATM   16  C   UNL     1       7.094   3.250  -2.943  1.00  0.00    -0.000 C 
BRANCH  16  17
HETATM   17  C   UNL     1       8.621   3.259  -2.987  1.00  0.00    -0.005 C 
HETATM   18  C   UNL     1       9.139   4.285  -3.983  1.00  0.00     0.005 C 
ENDBRANCH  16  17
ENDBRANCH  15  16
ENDBRANCH  14  15
ENDBRANCH  13  14
ENDBRANCH  12  13
ENDBRANCH  11  12
ENDBRANCH   1  11
TORSDOF 14
