REMARK  2 active torsions:
REMARK  status: ('A' for Active; 'I' for Inactive)
REMARK    1  A    between atoms: C_1  and  C_7 
REMARK    2  A    between atoms: C_7  and  C_8 
ROOT
HETATM    1  C   UNL     1      -1.341   0.018  -0.092  1.00  0.00    -0.058 A 
HETATM    2  C   UNL     1      -0.619   1.216  -0.035  1.00  0.00     0.007 A 
HETATM    3  C   UNL     1      -0.626  -1.192  -0.069  1.00  0.00     0.007 A 
HETATM    4  C   UNL     1       0.777   1.206   0.039  1.00  0.00     0.001 A 
HETATM    5  C   UNL     1       0.768  -1.202   0.006  1.00  0.00     0.001 A 
HETATM    6  C   UNL     1       1.470  -0.002   0.058  1.00  0.00     0.000 A 
ENDROOT
BRANCH   1   7
HETATM    7  C   UNL     1      -2.851  -0.051  -0.185  1.00  0.00     0.038 C 
BRANCH   7   8
HETATM    8  C   UNL     1      -3.604   1.283  -0.195  1.00  0.00     0.000 C 
HETATM    9  C   UNL     1      -5.106   1.072  -0.327  1.00  0.00     0.005 C 
ENDBRANCH   7   8
ENDBRANCH   1   7
TORSDOF 2
