REMARK  21 active torsions:
REMARK  status: ('A' for Active; 'I' for Inactive)
REMARK    1  A    between atoms: O_1  and  C_2 
REMARK    2  A    between atoms: O_1  and  C_3 
REMARK    3  A    between atoms: C_2  and  C_4 
REMARK    4  A    between atoms: C_4  and  O_9 
REMARK    5  A    between atoms: C_5  and  O_10 
REMARK    6  A    between atoms: C_7  and  O_13 
REMARK    7  A    between atoms: O_9  and  C_16 
REMARK    8  A    between atoms: O_10  and  C_17 
REMARK    9  A    between atoms: C_11  and  O_18 
REMARK   10  A    between atoms: C_12  and  C_19 
REMARK   11  A    between atoms: O_13  and  C_20 
REMARK   12  A    between atoms: C_14  and  O_21 
REMARK   13  A    between atoms: C_15  and  C_23 
REMARK   14  A    between atoms: O_18  and  C_28 
REMARK   15  A    between atoms: C_19  and  O_29 
REMARK   16  A    between atoms: O_21  and  C_32 
REMARK   17  A    between atoms: C_22  and  O_33 
REMARK   18  A    between atoms: C_23  and  O_34 
REMARK   19  A    between atoms: O_29  and  C_37 
REMARK   20  A    between atoms: O_33  and  C_40 
REMARK   21  A    between atoms: O_34  and  C_41 
ROOT
HETATM    1  O   UNL     1       1.295   0.215  -0.007  1.00  0.00    -0.318 OA
ENDROOT
BRANCH   1   2
HETATM    2  C   UNL     1       0.609   1.421   0.361  1.00  0.00     0.219 C 
HETATM    3  O   UNL     1       0.908   2.495  -0.535  1.00  0.00    -0.341 OA
HETATM    4  C   UNL     1       0.641   3.761   0.126  1.00  0.00     0.182 C 
HETATM    5  C   UNL     1       0.676   3.501   1.641  1.00  0.00     0.198 C 
HETATM    6  C   UNL     1       0.776   1.965   1.798  1.00  0.00     0.228 C 
BRANCH   2   7
HETATM    7  C   UNL     1      -0.902   1.020   0.175  1.00  0.00     0.250 C 
BRANCH   7   8
HETATM    8  O   UNL     1      -1.795   2.099   0.508  1.00  0.00    -0.316 OA
BRANCH   8   9
HETATM    9  C   UNL     1      -3.058   1.972   0.970  1.00  0.00     0.254 C 
HETATM   10  C   UNL     1      -3.620   0.603   1.209  1.00  0.00     0.126 C 
HETATM   11  O   UNL     1      -3.720   2.974   1.222  1.00  0.00    -0.266 OA
ENDBRANCH   8   9
ENDBRANCH   7   8
ENDBRANCH   2   7
BRANCH   4  12
HETATM   12  C   UNL     1       1.706   4.786  -0.309  1.00  0.00     0.213 C 
BRANCH  12  13
HETATM   13  O   UNL     1       1.386   5.405  -1.567  1.00  0.00    -0.319 OA
BRANCH  13  14
HETATM   14  C   UNL     1       2.367   6.020  -2.287  1.00  0.00     0.254 C 
HETATM   15  C   UNL     1       3.747   6.096  -1.686  1.00  0.00     0.126 C 
HETATM   16  O   UNL     1       2.131   6.464  -3.406  1.00  0.00    -0.266 OA
ENDBRANCH  13  14
ENDBRANCH  12  13
ENDBRANCH   4  12
BRANCH   5  17
HETATM   17  O   UNL     1      -0.562   3.878   2.311  1.00  0.00    -0.311 OA
BRANCH  17  18
HETATM   18  C   UNL     1      -0.996   5.125   2.602  1.00  0.00     0.255 C 
HETATM   19  C   UNL     1      -0.321   6.277   1.932  1.00  0.00     0.126 C 
HETATM   20  O   UNL     1      -1.919   5.294   3.391  1.00  0.00    -0.266 OA
ENDBRANCH  17  18
ENDBRANCH   5  17
BRANCH   6  21
HETATM   21  O   UNL     1       2.037   1.641   2.417  1.00  0.00    -0.308 OA
BRANCH  21  22
HETATM   22  C   UNL     1       2.198   0.576   3.247  1.00  0.00     0.255 C 
HETATM   23  C   UNL     1       1.235  -0.576   3.140  1.00  0.00     0.126 C 
HETATM   24  O   UNL     1       3.212   0.491   3.934  1.00  0.00    -0.266 OA
ENDBRANCH  21  22
ENDBRANCH   6  21
ENDBRANCH   1   2
BRANCH   1  25
HETATM   25  C   UNL     1       2.707   0.048  -0.009  1.00  0.00     0.296 C 
HETATM   26  C   UNL     1       3.580   0.945  -0.900  1.00  0.00     0.219 C 
HETATM   27  C   UNL     1       3.040   0.805  -2.335  1.00  0.00     0.198 C 
HETATM   28  C   UNL     1       3.323  -0.662  -2.759  1.00  0.00     0.195 C 
HETATM   29  C   UNL     1       2.615  -1.615  -1.763  1.00  0.00     0.181 C 
HETATM   30  O   UNL     1       2.980  -1.313  -0.400  1.00  0.00    -0.348 OA
BRANCH  26  31
HETATM   31  O   UNL     1       3.648   2.293  -0.414  1.00  0.00    -0.308 OA
BRANCH  31  32
HETATM   32  C   UNL     1       4.366   2.683   0.673  1.00  0.00     0.255 C 
HETATM   33  C   UNL     1       5.343   1.748   1.316  1.00  0.00     0.126 C 
HETATM   34  O   UNL     1       4.215   3.818   1.122  1.00  0.00    -0.266 OA
ENDBRANCH  31  32
ENDBRANCH  26  31
BRANCH  27  35
HETATM   35  O   UNL     1       3.757   1.686  -3.228  1.00  0.00    -0.311 OA
BRANCH  35  36
HETATM   36  C   UNL     1       3.111   2.420  -4.175  1.00  0.00     0.255 C 
HETATM   37  C   UNL     1       1.700   2.840  -3.882  1.00  0.00     0.126 C 
HETATM   38  O   UNL     1       3.695   2.759  -5.200  1.00  0.00    -0.266 OA
ENDBRANCH  35  36
ENDBRANCH  27  35
BRANCH  28  39
HETATM   39  O   UNL     1       2.848  -0.857  -4.107  1.00  0.00    -0.311 OA
BRANCH  39  40
HETATM   40  C   UNL     1       3.533  -1.461  -5.109  1.00  0.00     0.255 C 
HETATM   41  C   UNL     1       4.861  -2.110  -4.829  1.00  0.00     0.126 C 
HETATM   42  O   UNL     1       3.068  -1.477  -6.245  1.00  0.00    -0.266 OA
ENDBRANCH  39  40
ENDBRANCH  28  39
BRANCH  29  43
HETATM   43  C   UNL     1       2.965  -3.098  -1.982  1.00  0.00     0.213 C 
BRANCH  43  44
HETATM   44  O   UNL     1       2.420  -3.566  -3.223  1.00  0.00    -0.319 OA
BRANCH  44  45
HETATM   45  C   UNL     1       2.601  -4.832  -3.671  1.00  0.00     0.254 C 
HETATM   46  C   UNL     1       3.615  -5.691  -2.974  1.00  0.00     0.126 C 
HETATM   47  O   UNL     1       2.009  -5.231  -4.668  1.00  0.00    -0.266 OA
ENDBRANCH  44  45
ENDBRANCH  43  44
ENDBRANCH  29  43
ENDBRANCH   1  25
TORSDOF 21
