REMARK  1 active torsions:
REMARK  status: ('A' for Active; 'I' for Inactive)
REMARK    1  A    between atoms: C_19  and  O_29 
ROOT
HETATM    1  C   UNL     1       9.866  -4.561  -4.539  1.00  0.00     0.012 C 
HETATM    2  C   UNL     1       9.826  -0.208  -0.137  1.00  0.00     0.047 C 
HETATM    3  C   UNL     1      10.213  -4.061   1.416  1.00  0.00     0.015 C 
HETATM    4  C   UNL     1      10.307   2.968   3.257  1.00  0.00     0.020 C 
HETATM    5  C   UNL     1      12.441   1.188   5.500  1.00  0.00    -0.023 C 
HETATM    6  C   UNL     1      12.745   0.056   4.582  1.00  0.00     0.033 C 
HETATM    7  C   UNL     1      11.639   5.304   4.560  1.00  0.00     0.033 C 
HETATM    8  C   UNL     1      12.814  -1.940   2.248  1.00  0.00     0.013 C 
HETATM    9  C   UNL     1      12.364   4.326   3.582  1.00  0.00     0.016 C 
HETATM   10  C   UNL     1      12.807  -2.582   0.872  1.00  0.00     0.044 C 
HETATM   11  C   UNL     1      11.883  -3.631  -3.291  1.00  0.00     0.040 C 
HETATM   12  C   UNL     1      12.158   3.476   6.203  1.00  0.00     0.066 C 
HETATM   13  C   UNL     1      12.059   1.673   1.215  1.00  0.00     0.041 C 
HETATM   14  C   UNL     1      10.912  -5.899  -2.667  1.00  0.00     0.274 C 
HETATM   15  C   UNL     1      11.173  -4.895  -3.813  1.00  0.00     0.012 C 
HETATM   16  C   UNL     1      11.170  -0.675   0.343  1.00  0.00    -0.046 C 
HETATM   17  C   UNL     1      10.437  -3.294   0.118  1.00  0.00     0.056 C 
HETATM   18  C   UNL     1      12.055   2.412   5.128  1.00  0.00    -0.072 C 
HETATM   19  C   UNL     1      11.295   4.687   5.925  1.00  0.00     0.122 C 
HETATM   20  C   UNL     1      12.918  -0.436   2.061  1.00  0.00     0.020 C 
HETATM   21  C   UNL     1      12.290   0.382   3.188  1.00  0.00     0.003 C 
HETATM   22  C   UNL     1      12.035   0.150   0.987  1.00  0.00    -0.070 C 
HETATM   23  C   UNL     1      12.507   1.837   2.705  1.00  0.00     0.007 C 
HETATM   24  C   UNL     1      11.189  -3.099  -2.051  1.00  0.00     0.157 C 
HETATM   25  C   UNL     1      10.957  -4.187  -1.018  1.00  0.00     0.256 C 
HETATM   26  C   UNL     1      11.799   2.870   3.659  1.00  0.00    -0.016 C 
HETATM   27  C   UNL     1      11.539  -2.157   0.073  1.00  0.00     0.090 C 
HETATM   28  N   UNL     1      10.165  -5.299  -1.538  1.00  0.00     0.091 N 
HETATM   29  O   UNL     1      11.960  -2.127  -1.343  1.00  0.00    -0.368 OA
HETATM   30  H   UNL     1      10.055  -6.006  -0.811  1.00  0.00     0.316 HD
ENDROOT
BRANCH  19  31
HETATM   31  O   UNL     1      11.507   5.638   6.968  1.00  0.00    -0.395 OA
HETATM   32  H   UNL     1      10.671   6.114   7.107  1.00  0.00     0.210 HD
ENDBRANCH  19  31
TORSDOF 1
