REMARK  6 active torsions:
REMARK  status: ('A' for Active; 'I' for Inactive)
REMARK    1  A    between atoms: C_1  and  C_3 
REMARK    2  A    between atoms: C_2  and  C_4 
REMARK    3  A    between atoms: C_3  and  O_7 
REMARK    4  A    between atoms: C_4  and  O_8 
REMARK    5  A    between atoms: O_7  and  C_13 
REMARK    6  A    between atoms: C_13  and  C_14 
ROOT
HETATM    1  C   UNL     1      -1.550  -0.178  -0.116  1.00  0.00     0.056 A 
HETATM    2  C   UNL     1      -0.739  -1.337  -0.101  1.00  0.00     0.053 A 
HETATM    3  C   UNL     1      -0.926   1.095  -0.057  1.00  0.00     0.018 A 
HETATM    4  C   UNL     1       0.668  -1.150  -0.035  1.00  0.00     0.019 A 
HETATM    5  C   UNL     1       0.460   1.238   0.011  1.00  0.00     0.001 A 
HETATM    6  C   UNL     1       1.260   0.111   0.019  1.00  0.00     0.001 A 
ENDROOT
BRANCH   1   7
HETATM    7  C   UNL     1      -3.041  -0.195  -0.190  1.00  0.00     0.294 C 
HETATM    8  O   UNL     1      -3.699  -1.220  -0.266  1.00  0.00    -0.259 OA
BRANCH   7   9
HETATM    9  O   UNL     1      -3.579   1.051  -0.184  1.00  0.00    -0.313 OA
BRANCH   9  10
HETATM   10  C   UNL     1      -5.011   1.054  -0.292  1.00  0.00     0.217 C 
BRANCH  10  11
HETATM   11  C   UNL     1      -5.587   2.450  -0.364  1.00  0.00    -0.034 A 
HETATM   12  C   UNL     1      -6.956   2.592  -0.647  1.00  0.00     0.009 A 
HETATM   13  C   UNL     1      -7.546   3.854  -0.716  1.00  0.00     0.001 A 
HETATM   14  C   UNL     1      -6.776   4.993  -0.499  1.00  0.00     0.000 A 
HETATM   15  C   UNL     1      -5.419   4.869  -0.208  1.00  0.00     0.001 A 
HETATM   16  C   UNL     1      -4.827   3.604  -0.137  1.00  0.00     0.009 A 
ENDBRANCH  10  11
ENDBRANCH   9  10
ENDBRANCH   7   9
ENDBRANCH   1   7
BRANCH   2  17
HETATM   17  C   UNL     1      -1.117  -2.798  -0.134  1.00  0.00     0.177 C 
HETATM   18  O   UNL     1      -0.258  -3.658   0.034  1.00  0.00    -0.646 OA
BRANCH  17  19
HETATM   19  O   UNL     1      -2.373  -3.185  -0.389  1.00  0.00    -0.773 OA
HETATM   20  H   UNL     1      -3.071  -2.495  -0.427  1.00  0.00     0.167 HD
ENDBRANCH  17  19
ENDBRANCH   2  17
TORSDOF 6
