REMARK  0 active torsions:
REMARK  status: ('A' for Active; 'I' for Inactive)
ROOT
HETATM    1  N   UNL     1       1.407  -0.834  -0.147  1.00  0.00    -0.353 N 
HETATM    2  N   UNL     1      -1.403  -0.814   0.142  1.00  0.00    -0.353 N 
HETATM    3  C   UNL     1       0.714   0.377   0.014  1.00  0.00     0.061 A 
HETATM    4  C   UNL     1      -0.765   0.342  -0.001  1.00  0.00     0.061 A 
HETATM    5  C   UNL     1       0.650  -1.998  -0.298  1.00  0.00     0.149 C 
HETATM    6  C   UNL     1      -0.664  -2.066   0.325  1.00  0.00     0.149 C 
HETATM    7  C   UNL     1       2.788  -0.846  -0.151  1.00  0.00     0.091 A 
HETATM    8  C   UNL     1      -2.692  -0.840   0.119  1.00  0.00     0.091 A 
HETATM    9  C   UNL     1      -1.503   1.526  -0.164  1.00  0.00     0.032 A 
HETATM   10  C   UNL     1       1.421   1.561   0.175  1.00  0.00     0.032 A 
HETATM   11  C   UNL     1      -3.411   0.266  -0.018  1.00  0.00     0.017 A 
HETATM   12  C   UNL     1       3.483   0.340   0.009  1.00  0.00     0.017 A 
HETATM   13  C   UNL     1       2.803   1.535   0.171  1.00  0.00     0.004 A 
HETATM   14  C   UNL     1      -2.828   1.449  -0.182  1.00  0.00     0.004 A 
ENDROOT
TORSDOF 0
