REMARK  8 active torsions:
REMARK  status: ('A' for Active; 'I' for Inactive)
REMARK    1  A    between atoms: C_1  and  C_2 
REMARK    2  A    between atoms: C_1  and  N_4 
REMARK    3  A    between atoms: C_2  and  C_3 
REMARK    4  A    between atoms: C_3  and  N_5 
REMARK    5  A    between atoms: N_4  and  C_6 
REMARK    6  A    between atoms: C_6  and  C_7 
REMARK    7  A    between atoms: C_7  and  C_8 
REMARK    8  A    between atoms: C_8  and  N_9 
ROOT
HETATM    1  N   UNL     1       2.567   0.054  -0.065  1.00  0.00     0.084 N 
HETATM    2  C   UNL     1       3.252   0.787   1.006  1.00  0.00     0.309 C 
ENDROOT
BRANCH   1   3
HETATM    3  C   UNL     1       1.101   0.074   0.112  1.00  0.00     0.273 C 
BRANCH   3   4
HETATM    4  C   UNL     1       0.597  -0.526   1.435  1.00  0.00     0.060 C 
BRANCH   4   5
HETATM    5  C   UNL     1      -0.941  -0.553   1.447  1.00  0.00     0.273 C 
BRANCH   5   6
HETATM    6  N   UNL     1      -1.524  -1.198   2.637  1.00  0.00     0.080 N 
HETATM    7  C   UNL     1      -1.198  -0.486   3.874  1.00  0.00     0.309 C 
HETATM    8  C   UNL     1      -2.980  -1.287   2.487  1.00  0.00     0.309 C 
ENDBRANCH   5   6
ENDBRANCH   4   5
ENDBRANCH   3   4
ENDBRANCH   1   3
BRANCH   1   9
HETATM    9  C   UNL     1       2.965   0.625  -1.371  1.00  0.00     0.273 C 
BRANCH   9  10
HETATM   10  C   UNL     1       2.472  -0.178  -2.586  1.00  0.00     0.060 C 
BRANCH  10  11
HETATM   11  C   UNL     1       2.963   0.457  -3.895  1.00  0.00     0.273 C 
BRANCH  11  12
HETATM   12  N   UNL     1       2.554  -0.283  -5.103  1.00  0.00     0.080 N 
HETATM   13  C   UNL     1       1.099  -0.320  -5.271  1.00  0.00     0.309 C 
HETATM   14  C   UNL     1       3.170   0.320  -6.289  1.00  0.00     0.309 C 
ENDBRANCH  11  12
ENDBRANCH  10  11
ENDBRANCH   9  10
ENDBRANCH   1   9
TORSDOF 8
