REMARK  8 active torsions:
REMARK  status: ('A' for Active; 'I' for Inactive)
REMARK    1  A    between atoms: C_1  and  C_2 
REMARK    2  A    between atoms: C_1  and  O_9 
REMARK    3  A    between atoms: C_2  and  C_3 
REMARK    4  A    between atoms: C_3  and  C_4 
REMARK    5  A    between atoms: C_4  and  C_5 
REMARK    6  A    between atoms: C_5  and  C_6 
REMARK    7  A    between atoms: C_6  and  C_7 
REMARK    8  A    between atoms: C_7  and  C_8 
ROOT
HETATM    1  C   UNL     1      -1.187  -1.384  -1.110  1.00  0.00     0.384 C 
HETATM    2  F   UNL     1      -1.751  -2.204  -2.047  1.00  0.00    -0.192 F 
HETATM    3  F   UNL     1       0.157  -1.619  -1.231  1.00  0.00    -0.192 F 
ENDROOT
BRANCH   1   4
HETATM    4  C   UNL     1      -1.452   0.061  -1.488  1.00  0.00     0.378 C 
HETATM    5  F   UNL     1      -2.806   0.238  -1.546  1.00  0.00    -0.192 F 
HETATM    6  F   UNL     1      -1.015   0.256  -2.773  1.00  0.00    -0.192 F 
BRANCH   4   7
HETATM    7  C   UNL     1      -0.839   1.153  -0.606  1.00  0.00     0.316 C 
HETATM    8  F   UNL     1      -1.300   1.061   0.665  1.00  0.00    -0.199 F 
HETATM    9  F   UNL     1      -1.324   2.353  -1.069  1.00  0.00    -0.199 F 
BRANCH   7  10
HETATM   10  C   UNL     1       0.680   1.300  -0.601  1.00  0.00     0.112 C 
BRANCH  10  11
HETATM   11  C   UNL     1       1.421   0.477   0.438  1.00  0.00     0.170 C 
BRANCH  11  12
HETATM   12  O   UNL     1       2.805   0.805   0.395  1.00  0.00    -0.401 OA
HETATM   13  H   UNL     1       3.179   0.452  -0.432  1.00  0.00     0.209 HD
ENDBRANCH  11  12
ENDBRANCH  10  11
ENDBRANCH   7  10
ENDBRANCH   4   7
ENDBRANCH   1   4
BRANCH   1  14
HETATM   14  C   UNL     1      -1.644  -1.841   0.267  1.00  0.00     0.387 C 
HETATM   15  F   UNL     1      -1.281  -3.155   0.418  1.00  0.00    -0.192 F 
HETATM   16  F   UNL     1      -0.895  -1.180   1.202  1.00  0.00    -0.192 F 
BRANCH  14  17
HETATM   17  C   UNL     1      -3.112  -1.700   0.621  1.00  0.00     0.409 C 
HETATM   18  F   UNL     1      -3.282  -2.117   1.916  1.00  0.00    -0.189 F 
HETATM   19  F   UNL     1      -3.470  -0.387   0.624  1.00  0.00    -0.189 F 
BRANCH  17  20
HETATM   20  C   UNL     1      -4.024  -2.507  -0.284  1.00  0.00     0.461 C 
HETATM   21  F   UNL     1      -3.677  -3.812  -0.326  1.00  0.00    -0.165 F 
HETATM   22  F   UNL     1      -5.311  -2.451   0.136  1.00  0.00    -0.165 F 
HETATM   23  F   UNL     1      -4.014  -2.047  -1.554  1.00  0.00    -0.165 F 
ENDBRANCH  17  20
ENDBRANCH  14  17
ENDBRANCH   1  14
TORSDOF 8
