REMARK  3 active torsions:
REMARK  status: ('A' for Active; 'I' for Inactive)
REMARK    1  A    between atoms: C_1  and  O_2 
REMARK    2  A    between atoms: C_3  and  C_8 
REMARK    3  A    between atoms: C_7  and  C_12 
ROOT
HETATM    1  C   UNL     1      -1.419  -0.001   0.009  1.00  0.00     0.072 A 
HETATM    2  C   UNL     1      -0.745  -1.220  -0.141  1.00  0.00    -0.017 A 
HETATM    3  C   UNL     1      -0.736   1.213   0.122  1.00  0.00     0.037 A 
HETATM    4  C   UNL     1       0.653   1.248   0.064  1.00  0.00     0.010 A 
HETATM    5  C   UNL     1       0.673  -1.144  -0.181  1.00  0.00     0.017 A 
HETATM    6  C   UNL     1       1.382   0.067  -0.088  1.00  0.00    -0.058 A 
ENDROOT
BRANCH   2   7
HETATM    7  C   UNL     1      -1.398  -2.619  -0.210  1.00  0.00    -0.021 C 
HETATM    8  C   UNL     1      -0.882  -3.385  -1.454  1.00  0.00     0.019 C 
HETATM    9  C   UNL     1      -1.013  -3.409   1.063  1.00  0.00     0.019 C 
HETATM   10  C   UNL     1      -2.939  -2.654  -0.301  1.00  0.00     0.019 C 
ENDBRANCH   2   7
BRANCH   1  11
HETATM   11  O   UNL     1      -2.777   0.111   0.052  1.00  0.00    -0.360 OA
HETATM   12  H   UNL     1      -3.090  -0.143  -0.832  1.00  0.00     0.217 HD
ENDBRANCH   1  11
BRANCH   6  13
HETATM   13  C   UNL     1       2.890   0.162  -0.156  1.00  0.00     0.034 C 
HETATM   14  C   UNL     1       3.668  -1.148  -0.160  1.00  0.00     0.010 C 
ENDBRANCH   6  13
TORSDOF 3
