REMARK  2 active torsions:
REMARK  status: ('A' for Active; 'I' for Inactive)
REMARK    1  A    between atoms: N_1  and  C_5 
REMARK    2  A    between atoms: C_5  and  C_6 
ROOT
HETATM    1  N   UNL     1       0.839   0.019  -0.072  1.00  0.00    -0.076 N 
HETATM    2  C   UNL     1       0.309  -0.519   1.248  1.00  0.00     0.271 C 
HETATM    3  C   UNL     1       0.192   1.361  -0.378  1.00  0.00     0.271 C 
HETATM    4  C   UNL     1       0.476  -0.964  -1.184  1.00  0.00     0.271 C 
ENDROOT
BRANCH   1   5
HETATM    5  C   UNL     1       2.376   0.156  -0.033  1.00  0.00     0.270 C 
BRANCH   5   6
HETATM    6  C   UNL     1       2.958   1.027   1.036  1.00  0.00     0.171 A 
HETATM    7  C   UNL     1       3.182   2.512   0.862  1.00  0.00     0.201 A 
HETATM    8  O   UNL     1       4.242   1.564   0.687  1.00  0.00    -0.379 OA
ENDBRANCH   5   6
ENDBRANCH   1   5
TORSDOF 2
