REMARK  4 active torsions:
REMARK  status: ('A' for Active; 'I' for Inactive)
REMARK    1  A    between atoms: N_1  and  C_6 
REMARK    2  A    between atoms: C_4  and  C_21 
REMARK    3  A    between atoms: C_12  and  C_18 
REMARK    4  A    between atoms: C_16  and  O_24 
ROOT
HETATM    1  N   UNL     1      -2.183  -0.641   0.410  1.00  0.00    -0.243 N 
HETATM    2  C   UNL     1      -1.152  -1.355   0.967  1.00  0.00     0.266 C 
HETATM    3  C   UNL     1      -1.744   0.657   0.485  1.00  0.00     0.266 C 
HETATM    4  C   UNL     1      -0.298   0.624   0.323  1.00  0.00     0.048 A 
HETATM    5  C   UNL     1       0.082  -0.664   0.607  1.00  0.00     0.051 A 
HETATM    6  O   UNL     1      -2.256   1.703   0.824  1.00  0.00    -0.267 OA
HETATM    7  O   UNL     1      -1.149  -2.257   1.787  1.00  0.00    -0.267 OA
HETATM    8  C   UNL     1       0.608   1.608  -0.017  1.00  0.00     0.021 A 
HETATM    9  C   UNL     1       1.396  -1.077   0.524  1.00  0.00     0.054 A 
HETATM   10  C   UNL     1       2.323  -0.112   0.127  1.00  0.00     0.066 A 
HETATM   11  C   UNL     1       1.945   1.220  -0.127  1.00  0.00     0.037 A 
ENDROOT
BRANCH   1  12
HETATM   12  C   UNL     1      -3.530  -1.140   0.287  1.00  0.00     0.059 C 
HETATM   13  C   UNL     1      -3.795  -2.559   0.290  1.00  0.00    -0.027 C 
HETATM   14  C   UNL     1      -5.103  -3.005   0.643  1.00  0.00     0.010 C 
HETATM   15  C   UNL     1      -6.167  -2.143   0.784  1.00  0.00     0.001 C 
HETATM   16  C   UNL     1      -5.962  -0.812   0.496  1.00  0.00     0.010 C 
HETATM   17  C   UNL     1      -4.677  -0.281   0.187  1.00  0.00    -0.027 C 
BRANCH  13  18
HETATM   18  C   UNL     1      -2.980  -3.748  -0.308  1.00  0.00     0.013 C 
HETATM   19  C   UNL     1      -3.588  -4.101  -1.691  1.00  0.00     0.015 C 
HETATM   20  C   UNL     1      -1.465  -3.816  -0.508  1.00  0.00     0.015 C 
ENDBRANCH  13  18
BRANCH  17  21
HETATM   21  C   UNL     1      -4.804   1.170  -0.318  1.00  0.00     0.013 C 
HETATM   22  C   UNL     1      -5.049   2.178   0.817  1.00  0.00     0.015 C 
HETATM   23  C   UNL     1      -3.884   1.665  -1.444  1.00  0.00     0.015 C 
ENDBRANCH  17  21
ENDBRANCH   1  12
BRANCH  10  24
HETATM   24  O   UNL     1       3.640  -0.424  -0.043  1.00  0.00    -0.361 OA
HETATM   25  H   UNL     1       3.768  -1.375   0.110  1.00  0.00     0.217 HD
ENDBRANCH  10  24
TORSDOF 4
