REMARK  1 active torsions:
REMARK  status: ('A' for Active; 'I' for Inactive)
REMARK    1  A    between atoms: C_1  and  C_7 
ROOT
HETATM    1  C   UNL     1      -1.364  -0.051  -0.105  1.00  0.00    -0.051 A 
HETATM    2  C   UNL     1      -0.679   1.174  -0.045  1.00  0.00     0.008 A 
HETATM    3  C   UNL     1       0.717   1.223   0.045  1.00  0.00     0.001 A 
HETATM    4  C   UNL     1       1.460   0.048   0.078  1.00  0.00     0.000 A 
HETATM    5  C   UNL     1       0.807  -1.178   0.020  1.00  0.00     0.001 A 
HETATM    6  C   UNL     1      -0.587  -1.226  -0.072  1.00  0.00     0.008 A 
ENDROOT
BRANCH   1   7
HETATM    7  C   UNL     1      -2.896  -0.142  -0.218  1.00  0.00    -0.024 C 
HETATM    8  C   UNL     1      -3.270  -0.823  -1.552  1.00  0.00     0.019 C 
HETATM    9  C   UNL     1      -3.464  -0.973   0.953  1.00  0.00     0.019 C 
HETATM   10  C   UNL     1      -3.607   1.230  -0.187  1.00  0.00     0.019 C 
ENDBRANCH   1   7
TORSDOF 1
