REMARK  0 active torsions:
REMARK  status: ('A' for Active; 'I' for Inactive)
REMARK       I    between atoms: C_1  and  N_4 
ROOT
HETATM    1  C   UNL     1       0.872  -0.021  -0.140  1.00  0.00     0.213 C 
HETATM    2  O   UNL     1       0.305  -0.028  -1.226  1.00  0.00    -0.274 OA
HETATM    3  C   UNL     1       2.371  -0.020  -0.011  1.00  0.00     0.117 C 
HETATM    4  N   UNL     1       0.225  -0.013   1.074  1.00  0.00    -0.366 N 
HETATM    5  C   UNL     1      -1.212  -0.012   1.184  1.00  0.00     0.149 C 
HETATM    6  H   UNL     1       0.773  -0.007   1.925  1.00  0.00     0.161 HD
ENDROOT
TORSDOF 0
