REMARK  5 active torsions:
REMARK  status: ('A' for Active; 'I' for Inactive)
REMARK    1  A    between atoms: C_1  and  C_4 
REMARK    2  A    between atoms: C_2  and  C_6 
REMARK    3  A    between atoms: N_5  and  C_11 
REMARK    4  A    between atoms: C_18  and  C_26 
REMARK    5  A    between atoms: C_19  and  C_28 
ROOT
HETATM    1  C   UNL     1       1.329  -1.390   0.133  1.00  0.00     0.021 C 
HETATM    2  C   UNL     1       2.401  -0.645   0.549  1.00  0.00     0.139 C 
HETATM    3  C   UNL     1       0.047  -0.703  -0.313  1.00  0.00     0.001 A 
HETATM    4  N   UNL     1       2.516   0.698  -0.062  1.00  0.00    -0.227 N 
HETATM    5  C   UNL     1      -0.176   0.653  -0.090  1.00  0.00     0.091 A 
HETATM    6  C   UNL     1      -1.077  -1.424  -0.766  1.00  0.00     0.014 A 
HETATM    7  S   UNL     1       1.179   1.694   0.262  1.00  0.00     0.271 S 
HETATM    8  C   UNL     1      -1.443   1.257  -0.186  1.00  0.00     0.026 A 
HETATM    9  C   UNL     1      -2.357  -0.848  -0.842  1.00  0.00     0.001 A 
HETATM   10  O   UNL     1       1.131   2.738  -0.752  1.00  0.00    -0.200 OA
HETATM   11  O   UNL     1       1.082   2.042   1.665  1.00  0.00    -0.200 OA
HETATM   12  C   UNL     1      -2.546   0.491  -0.527  1.00  0.00     0.002 A 
ENDROOT
BRANCH   1  13
HETATM   13  C   UNL     1       1.400  -2.903   0.205  1.00  0.00    -0.019 C 
HETATM   14  C   UNL     1       2.435  -3.570  -0.476  1.00  0.00     0.052 C 
HETATM   15  C   UNL     1       2.437  -4.946  -0.511  1.00  0.00     0.106 C 
HETATM   16  C   UNL     1       1.397  -5.683   0.003  1.00  0.00     0.111 C 
HETATM   17  O   UNL     1       3.404  -5.726  -1.069  1.00  0.00    -0.323 OA
HETATM   18  C   UNL     1       0.295  -5.086   0.592  1.00  0.00    -0.021 C 
HETATM   19  O   UNL     1       1.594  -7.023  -0.170  1.00  0.00    -0.322 OA
HETATM   20  C   UNL     1       0.359  -3.687   0.769  1.00  0.00     0.022 C 
HETATM   21  C   UNL     1       2.953  -7.025  -0.653  1.00  0.00     0.352 C 
BRANCH  18  22
HETATM   22  C   UNL     1      -0.887  -5.926   0.999  1.00  0.00     0.037 C 
HETATM   23  C   UNL     1      -2.240  -5.230   0.890  1.00  0.00     0.010 C 
ENDBRANCH  18  22
ENDBRANCH   1  13
BRANCH   2  24
HETATM   24  C   UNL     1       3.472  -1.111   1.634  1.00  0.00     0.229 C 
HETATM   25  O   UNL     1       3.879  -2.300   1.588  1.00  0.00    -0.643 OA
HETATM   26  O   UNL     1       3.814  -0.194   2.439  1.00  0.00    -0.643 OA
ENDBRANCH   2  24
BRANCH   4  27
HETATM   27  C   UNL     1       3.847   1.336  -0.094  1.00  0.00     0.066 A 
HETATM   28  C   UNL     1       4.976   0.732  -0.690  1.00  0.00     0.075 A 
HETATM   29  C   UNL     1       6.229   1.405  -0.661  1.00  0.00     0.018 A 
HETATM   30  C   UNL     1       6.366   2.687  -0.143  1.00  0.00     0.001 A 
HETATM   31  C   UNL     1       5.255   3.312   0.387  1.00  0.00     0.002 A 
HETATM   32  C   UNL     1       4.029   2.636   0.432  1.00  0.00     0.031 A 
BRANCH  28  33
HETATM   33  C   UNL     1       4.977  -0.588  -1.415  1.00  0.00     0.419 C 
HETATM   34  F   UNL     1       5.823  -0.549  -2.502  1.00  0.00    -0.166 F 
HETATM   35  F   UNL     1       5.446  -1.626  -0.677  1.00  0.00    -0.166 F 
HETATM   36  F   UNL     1       3.788  -0.973  -1.952  1.00  0.00    -0.166 F 
ENDBRANCH  28  33
ENDBRANCH   4  27
TORSDOF 5
