REMARK  3 active torsions:
REMARK  status: ('A' for Active; 'I' for Inactive)
REMARK    1  A    between atoms: C_5  and  C_11 
REMARK    2  A    between atoms: C_14  and  N_19 
REMARK       I    between atoms: N_19  and  C_22 
REMARK    3  A    between atoms: C_22  and  C_24 
ROOT
HETATM    1  C   UNL     1       0.293   0.141  -0.103  1.00  0.00     0.056 A 
HETATM    2  C   UNL     1      -0.034  -1.199  -0.204  1.00  0.00     0.021 A 
HETATM    3  N   UNL     1      -0.535   1.264  -0.135  1.00  0.00    -0.313 N 
HETATM    4  C   UNL     1       1.620   0.552   0.046  1.00  0.00    -0.028 A 
HETATM    5  C   UNL     1      -1.391  -1.636  -0.625  1.00  0.00     0.077 C 
HETATM    6  C   UNL     1       0.994  -2.140  -0.025  1.00  0.00     0.023 A 
HETATM    7  C   UNL     1      -1.896   1.312   0.060  1.00  0.00     0.269 C 
HETATM    8  C   UNL     1       0.290   2.463  -0.298  1.00  0.00     0.137 C 
HETATM    9  C   UNL     1       1.723   2.048   0.065  1.00  0.00     0.061 C 
HETATM   10  C   UNL     1       2.642  -0.369   0.211  1.00  0.00     0.016 A 
HETATM   11  N   UNL     1      -2.505  -1.085  -0.293  1.00  0.00    -0.253 NA
HETATM   12  C   UNL     1       2.325  -1.734   0.199  1.00  0.00    -0.060 A 
HETATM   13  C   UNL     1      -2.584   0.040   0.624  1.00  0.00     0.302 C 
HETATM   14  O   UNL     1      -2.525   2.366  -0.085  1.00  0.00    -0.269 OA
HETATM   15  C   UNL     1       3.405  -2.753   0.422  1.00  0.00     0.048 C 
ENDROOT
BRANCH  13  16
HETATM   16  N   UNL     1      -2.106  -0.309   1.952  1.00  0.00    -0.326 N 
HETATM   17  C   UNL     1      -2.478  -1.332   2.779  1.00  0.00     0.253 C 
HETATM   18  O   UNL     1      -1.837  -1.541   3.808  1.00  0.00    -0.268 OA
HETATM   19  H   UNL     1      -1.308   0.207   2.298  1.00  0.00     0.165 HD
BRANCH  17  20
HETATM   20  C   UNL     1      -3.592  -2.242   2.434  1.00  0.00     0.034 A 
HETATM   21  C   UNL     1      -3.382  -3.614   2.588  1.00  0.00     0.036 A 
HETATM   22  C   UNL     1      -4.416  -4.470   2.260  1.00  0.00     0.117 A 
HETATM   23  N   UNL     1      -5.617  -4.051   1.807  1.00  0.00    -0.273 NA
HETATM   24  C   UNL     1      -5.802  -2.717   1.706  1.00  0.00     0.117 A 
HETATM   25  C   UNL     1      -4.837  -1.778   2.021  1.00  0.00     0.036 A 
ENDBRANCH  17  20
ENDBRANCH  13  16
BRANCH   5  26
HETATM   26  C   UNL     1      -1.480  -2.812  -1.535  1.00  0.00    -0.007 A 
HETATM   27  C   UNL     1      -2.235  -3.920  -1.143  1.00  0.00     0.014 A 
HETATM   28  C   UNL     1      -2.281  -5.051  -1.956  1.00  0.00     0.001 A 
HETATM   29  C   UNL     1      -1.595  -5.062  -3.171  1.00  0.00     0.000 A 
HETATM   30  C   UNL     1      -0.869  -3.941  -3.579  1.00  0.00     0.001 A 
HETATM   31  C   UNL     1      -0.808  -2.812  -2.761  1.00  0.00     0.014 A 
ENDBRANCH   5  26
TORSDOF 3
