REMARK  5 active torsions:
REMARK  status: ('A' for Active; 'I' for Inactive)
REMARK    1  A    between atoms: C_1  and  C_2 
REMARK    2  A    between atoms: C_13  and  C_16 
REMARK    3  A    between atoms: N_14  and  C_17 
REMARK    4  A    between atoms: C_16  and  O_20 
REMARK    5  A    between atoms: C_19  and  C_24 
ROOT
HETATM    1  C   UNL     1       0.532   1.179  -0.307  1.00  0.00     0.076 C 
HETATM    2  C   UNL     1       1.258  -0.122   0.154  1.00  0.00     0.030 C 
HETATM    3  C   UNL     1      -0.950   1.109   0.148  1.00  0.00     0.030 C 
HETATM    4  C   UNL     1       0.601   1.214  -1.798  1.00  0.00     0.074 C 
HETATM    5  C   UNL     1       0.553  -1.408  -0.297  1.00  0.00     0.017 C 
HETATM    6  C   UNL     1      -1.665  -0.173  -0.281  1.00  0.00     0.017 C 
HETATM    7  N   UNL     1       0.622   1.187  -2.959  1.00  0.00    -0.196 NA
HETATM    8  C   UNL     1      -0.905  -1.422   0.164  1.00  0.00     0.084 C 
ENDROOT
BRANCH   1   9
HETATM    9  C   UNL     1       1.132   2.479   0.265  1.00  0.00    -0.033 C 
HETATM   10  C   UNL     1       2.106   2.474   1.277  1.00  0.00     0.041 C 
HETATM   11  C   UNL     1       2.695   3.683   1.693  1.00  0.00     0.066 C 
HETATM   12  N   UNL     1       3.778   3.987   2.490  1.00  0.00    -0.264 N 
HETATM   13  C   UNL     1       2.219   4.914   1.239  1.00  0.00     0.019 C 
HETATM   14  N   UNL     1       3.840   5.306   2.786  1.00  0.00    -0.175 NA
HETATM   15  C   UNL     1       2.956   5.888   1.966  1.00  0.00     0.067 C 
HETATM   16  C   UNL     1       1.205   4.926   0.265  1.00  0.00     0.016 C 
HETATM   17  C   UNL     1       0.696   3.720  -0.225  1.00  0.00     0.010 C 
BRANCH  12  18
HETATM   18  C   UNL     1       4.902   3.164   2.957  1.00  0.00     0.110 C 
HETATM   19  C   UNL     1       6.256   3.768   2.513  1.00  0.00     0.027 C 
HETATM   20  C   UNL     1       6.485   3.592   1.012  1.00  0.00     0.002 C 
HETATM   21  C   UNL     1       6.480   2.119   0.620  1.00  0.00     0.000 C 
HETATM   22  C   UNL     1       5.234   1.391   1.112  1.00  0.00     0.002 C 
HETATM   23  C   UNL     1       4.930   1.666   2.590  1.00  0.00     0.027 C 
ENDBRANCH  12  18
BRANCH  15  24
HETATM   24  C   UNL     1       2.900   7.385   1.957  1.00  0.00     0.057 C 
HETATM   25  C   UNL     1       1.825   8.021   1.095  1.00  0.00     0.011 C 
ENDBRANCH  15  24
ENDBRANCH   1   9
BRANCH   8  26
HETATM   26  C   UNL     1      -1.631  -2.681  -0.265  1.00  0.00     0.143 C 
HETATM   27  O   UNL     1      -2.141  -3.457   0.531  1.00  0.00    -0.650 OA
BRANCH  26  28
HETATM   28  O   UNL     1      -1.693  -2.877  -1.597  1.00  0.00    -0.776 OA
HETATM   29  H   UNL     1      -1.273  -2.190  -2.149  1.00  0.00     0.167 HD
ENDBRANCH  26  28
ENDBRANCH   8  26
TORSDOF 5
