REMARK  0 active torsions:
REMARK  status: ('A' for Active; 'I' for Inactive)
ROOT
HETATM    1  C   UNL     1       1.474   0.762   0.082  1.00  0.00     0.010 A 
HETATM    2  C   UNL     1       1.417  -0.635   0.088  1.00  0.00     0.070 A 
HETATM    3  C   UNL     1       0.211   1.547   0.276  1.00  0.00     0.167 A 
HETATM    4  C   UNL     1       2.713   1.391  -0.120  1.00  0.00     0.045 A 
HETATM    5  N   UNL     1       0.219  -1.333   0.261  1.00  0.00    -0.235 NA
HETATM    6  C   UNL     1       2.583  -1.383  -0.098  1.00  0.00     0.056 A 
HETATM    7  N   UNL     1      -0.964   0.713   0.503  1.00  0.00    -0.365 N 
HETATM    8  C   UNL     1       3.875   0.643  -0.308  1.00  0.00     0.048 A 
HETATM    9 CL   UNL     1       2.852   3.114  -0.151  1.00  0.00    -0.084 Cl
HETATM   10  C   UNL     1      -0.875  -0.663   0.450  1.00  0.00     0.103 A 
HETATM   11  C   UNL     1       3.803  -0.745  -0.295  1.00  0.00     0.037 A 
HETATM   12  C   UNL     1      -2.231   1.426   0.626  1.00  0.00     0.124 C 
HETATM   13  C   UNL     1      -2.141  -1.496   0.593  1.00  0.00     0.078 C 
HETATM   14 CL   UNL     1       5.230  -1.677  -0.530  1.00  0.00    -0.084 Cl
HETATM   15  C   UNL     1      -3.095   1.232  -0.619  1.00  0.00     0.020 C 
HETATM   16  C   UNL     1      -3.025  -1.345  -0.639  1.00  0.00     0.008 C 
HETATM   17  C   UNL     1      -3.882  -0.079  -0.622  1.00  0.00     0.002 C 
ENDROOT
TORSDOF 0
