REMARK  4 active torsions:
REMARK  status: ('A' for Active; 'I' for Inactive)
REMARK    1  A    between atoms: C_6  and  N_11 
REMARK    2  A    between atoms: C_10  and  N_12 
REMARK       I    between atoms: N_12  and  C_15 
REMARK    3  A    between atoms: C_15  and  C_18 
REMARK    4  A    between atoms: C_18  and  C_20 
ROOT
HETATM    1  C   UNL     1      -0.726  -0.354   0.554  1.00  0.00     0.063 C 
HETATM    2  C   UNL     1      -0.069   1.044   0.521  1.00  0.00     0.075 C 
HETATM    3  C   UNL     1       0.298  -1.467   0.761  1.00  0.00     0.040 C 
HETATM    4  C   UNL     1      -1.819  -0.425   1.631  1.00  0.00     0.040 C 
HETATM    5  O   UNL     1      -1.418  -0.597  -0.685  1.00  0.00    -0.380 OA
HETATM    6  C   UNL     1       1.260   1.198  -0.269  1.00  0.00     0.243 C 
HETATM    7  C   UNL     1       1.487  -1.346  -0.183  1.00  0.00     0.025 C 
HETATM    8  C   UNL     1      -3.042   0.069   0.902  1.00  0.00     0.029 C 
HETATM    9  C   UNL     1      -2.834  -0.523  -0.472  1.00  0.00     0.168 C 
HETATM   10  C   UNL     1       2.240  -0.011  -0.018  1.00  0.00     0.099 C 
ENDROOT
BRANCH  10  11
HETATM   11  N   UNL     1       2.941   0.131   1.303  1.00  0.00    -0.251 NA
HETATM   12  C   UNL     1       3.547  -1.000   1.873  1.00  0.00     0.203 C 
HETATM   13  O   UNL     1       4.180  -1.829   1.224  1.00  0.00    -0.279 OA
HETATM   14  C   UNL     1       3.817   1.302   1.385  1.00  0.00     0.120 C 
BRANCH  12  15
HETATM   15  C   UNL     1       3.228  -1.204   3.352  1.00  0.00     0.136 C 
BRANCH  15  16
HETATM   16  C   UNL     1       3.713  -0.122   4.286  1.00  0.00    -0.037 A 
HETATM   17  C   UNL     1       5.006  -0.120   4.857  1.00  0.00     0.006 A 
HETATM   18  C   UNL     1       5.375   0.931   5.690  1.00  0.00     0.085 A 
HETATM   19  C   UNL     1       6.140  -0.977   4.804  1.00  0.00     0.039 A 
HETATM   20  O   UNL     1       6.648   0.755   6.142  1.00  0.00    -0.322 OA
HETATM   21  C   UNL     1       4.554   2.009   6.008  1.00  0.00     0.038 A 
HETATM   22  C   UNL     1       7.102  -0.406   5.603  1.00  0.00     0.143 A 
HETATM   23  C   UNL     1       3.277   2.003   5.446  1.00  0.00     0.003 A 
HETATM   24  C   UNL     1       2.863   0.962   4.609  1.00  0.00     0.009 A 
ENDBRANCH  15  16
ENDBRANCH  12  15
ENDBRANCH  10  11
BRANCH   6  25
HETATM   25  N   UNL     1       1.204   1.588  -1.692  1.00  0.00     0.094 N 
HETATM   26  C   UNL     1       1.048   3.034  -1.891  1.00  0.00     0.273 C 
HETATM   27  C   UNL     1       0.704   3.178  -3.369  1.00  0.00     0.032 C 
HETATM   28  C   UNL     1       0.366   1.769  -3.835  1.00  0.00     0.032 C 
HETATM   29  C   UNL     1       0.189   0.984  -2.545  1.00  0.00     0.273 C 
ENDBRANCH   6  25
TORSDOF 4
