REMARK  7 active torsions:
REMARK  status: ('A' for Active; 'I' for Inactive)
REMARK    1  A    between atoms: C_1  and  N_4 
REMARK    2  A    between atoms: C_2  and  C_6 
REMARK    3  A    between atoms: C_3  and  C_8 
REMARK       I    between atoms: N_4  and  C_9 
REMARK       I    between atoms: C_9  and  N_15 
REMARK    4  A    between atoms: N_15  and  S_17 
REMARK    5  A    between atoms: S_17  and  C_18 
REMARK    6  A    between atoms: C_23  and  C_25 
REMARK    7  A    between atoms: C_25  and  O_28 
ROOT
HETATM    1  N   UNL     1       1.920  -1.701   0.482  1.00  0.00    -0.305 N 
HETATM    2  C   UNL     1       1.480  -2.715   1.332  1.00  0.00     0.357 C 
HETATM    3  N   UNL     1       0.295  -3.249   1.069  1.00  0.00    -0.100 NA
HETATM    4  O   UNL     1       2.248  -2.976   2.256  1.00  0.00    -0.244 OA
HETATM    5  H   UNL     1       2.664  -1.239   0.976  1.00  0.00     0.171 HD
ENDROOT
BRANCH   1   6
HETATM    6  C   UNL     1       1.217  -0.943  -0.488  1.00  0.00     0.049 C 
HETATM    7  C   UNL     1       0.341  -1.517  -1.448  1.00  0.00    -0.027 C 
HETATM    8  C   UNL     1      -0.620  -0.671  -2.038  1.00  0.00     0.010 C 
HETATM    9  C   UNL     1      -0.605   0.704  -1.837  1.00  0.00     0.001 C 
HETATM   10  C   UNL     1       0.426   1.272  -1.107  1.00  0.00     0.010 C 
HETATM   11  C   UNL     1       1.385   0.469  -0.459  1.00  0.00    -0.027 C 
BRANCH   7  12
HETATM   12  C   UNL     1       0.481  -2.965  -1.960  1.00  0.00     0.013 C 
HETATM   13  C   UNL     1      -0.277  -3.264  -3.271  1.00  0.00     0.015 C 
HETATM   14  C   UNL     1       1.951  -3.353  -2.208  1.00  0.00     0.015 C 
ENDBRANCH   7  12
BRANCH  11  15
HETATM   15  C   UNL     1       2.534   1.223   0.208  1.00  0.00     0.013 C 
HETATM   16  C   UNL     1       2.319   1.448   1.704  1.00  0.00     0.015 C 
HETATM   17  C   UNL     1       3.932   0.669  -0.105  1.00  0.00     0.015 C 
ENDBRANCH  11  15
ENDBRANCH   1   6
BRANCH   3  18
HETATM   18  S   UNL     1      -0.605  -3.741   2.271  1.00  0.00     0.310 S 
HETATM   19  O   UNL     1      -1.973  -4.111   1.908  1.00  0.00    -0.196 OA
HETATM   20  O   UNL     1      -0.007  -4.574   3.311  1.00  0.00    -0.196 OA
BRANCH  18  21
HETATM   21  C   UNL     1      -0.921  -2.195   3.175  1.00  0.00     0.192 A 
HETATM   22  C   UNL     1      -0.947  -1.931   4.537  1.00  0.00     0.063 A 
HETATM   23  C   UNL     1      -1.123  -0.528   4.714  1.00  0.00     0.001 A 
HETATM   24  C   UNL     1      -1.255  -0.032   3.432  1.00  0.00     0.153 A 
HETATM   25  O   UNL     1      -1.154  -1.012   2.510  1.00  0.00    -0.309 OA
BRANCH  23  26
HETATM   26  C   UNL     1      -1.114   0.260   5.992  1.00  0.00     0.079 C 
HETATM   27  C   UNL     1       0.185   1.067   6.118  1.00  0.00     0.051 C 
HETATM   28  C   UNL     1      -2.324   1.196   6.086  1.00  0.00     0.051 C 
BRANCH  26  29
HETATM   29  O   UNL     1      -1.182  -0.596   7.142  1.00  0.00    -0.386 OA
HETATM   30  H   UNL     1      -0.482  -1.262   7.030  1.00  0.00     0.211 HD
ENDBRANCH  26  29
ENDBRANCH  23  26
ENDBRANCH  18  21
ENDBRANCH   3  18
TORSDOF 7
