REMARK  5 active torsions:
REMARK  status: ('A' for Active; 'I' for Inactive)
REMARK    1  A    between atoms: C_7  and  C_12 
REMARK    2  A    between atoms: C_9  and  O_13 
REMARK       I    between atoms: C_12  and  N_14 
REMARK    3  A    between atoms: O_13  and  C_16 
REMARK    4  A    between atoms: N_14  and  C_17 
REMARK    5  A    between atoms: C_17  and  C_19 
ROOT
HETATM    1  C   UNL     1      -0.317  -0.524   0.144  1.00  0.00     0.137 A 
HETATM    2  C   UNL     1      -0.138   0.842  -0.053  1.00  0.00     0.065 A 
HETATM    3  C   UNL     1       0.884  -1.354   0.435  1.00  0.00     0.220 C 
HETATM    4  N   UNL     1      -1.516  -1.156   0.149  1.00  0.00    -0.219 NA
HETATM    5  N   UNL     1       1.146   1.393  -0.040  1.00  0.00    -0.363 N 
HETATM    6  C   UNL     1      -1.291   1.608  -0.169  1.00  0.00     0.036 A 
HETATM    7  C   UNL     1       2.222  -0.790   0.084  1.00  0.00     0.099 C 
HETATM    8  O   UNL     1       0.736  -2.428   1.009  1.00  0.00    -0.285 OA
HETATM    9  C   UNL     1      -2.614  -0.400  -0.012  1.00  0.00     0.165 A 
HETATM   10  C   UNL     1       2.236   0.550  -0.091  1.00  0.00     0.109 C 
HETATM   11  C   UNL     1      -2.545   0.981  -0.155  1.00  0.00     0.060 A 
HETATM   12  H   UNL     1       1.271   2.343  -0.375  1.00  0.00     0.165 HD
ENDROOT
BRANCH   7  13
HETATM   13  C   UNL     1       3.545  -1.487  -0.029  1.00  0.00     0.257 C 
HETATM   14  N   UNL     1       3.698  -2.833  -0.175  1.00  0.00    -0.352 N 
HETATM   15  H   UNL     1       4.671  -3.108  -0.127  1.00  0.00     0.163 HD
HETATM   16  O   UNL     1       4.586  -0.819  -0.044  1.00  0.00    -0.267 OA
BRANCH  14  17
HETATM   17  C   UNL     1       2.717  -3.881  -0.017  1.00  0.00     0.161 C 
BRANCH  17  18
HETATM   18  C   UNL     1       3.179  -5.296  -0.257  1.00  0.00    -0.041 A 
HETATM   19  C   UNL     1       4.260  -5.652  -1.070  1.00  0.00     0.009 A 
HETATM   20  C   UNL     1       4.584  -7.001  -1.258  1.00  0.00     0.001 A 
HETATM   21  C   UNL     1       3.823  -8.004  -0.655  1.00  0.00     0.000 A 
HETATM   22  C   UNL     1       2.732  -7.664   0.137  1.00  0.00     0.001 A 
HETATM   23  C   UNL     1       2.413  -6.322   0.330  1.00  0.00     0.009 A 
ENDBRANCH  17  18
ENDBRANCH  14  17
ENDBRANCH   7  13
BRANCH   9  24
HETATM   24  O   UNL     1      -3.748  -1.149  -0.010  1.00  0.00    -0.335 OA
BRANCH  24  25
HETATM   25  C   UNL     1      -4.999  -0.484  -0.109  1.00  0.00     0.173 C 
HETATM   26  C   UNL     1      -6.083  -1.546  -0.033  1.00  0.00     0.034 C 
ENDBRANCH  24  25
ENDBRANCH   9  24
TORSDOF 5
