REMARK  9 active torsions:
REMARK  status: ('A' for Active; 'I' for Inactive)
REMARK    1  A    between atoms: C_7  and  C_10 
REMARK       I    between atoms: C_10  and  N_12 
REMARK    2  A    between atoms: N_12  and  C_14 
REMARK    3  A    between atoms: C_14  and  C_16 
REMARK    4  A    between atoms: C_14  and  C_15 
REMARK    5  A    between atoms: C_15  and  O_18 
REMARK    6  A    between atoms: C_15  and  C_17 
REMARK    7  A    between atoms: C_16  and  C_19 
REMARK       I    between atoms: C_17  and  N_20 
REMARK    8  A    between atoms: C_28  and  O_31 
REMARK    9  A    between atoms: C_29  and  O_32 
ROOT
HETATM    1  C   UNL     1      -3.639  -2.929  -0.506  1.00  0.00     0.127 C 
ENDROOT
BRANCH   1   2
HETATM    2  N   UNL     1      -3.374  -3.762   0.673  1.00  0.00    -0.348 N 
HETATM    3  C   UNL     1      -3.752  -4.955   1.205  1.00  0.00     0.268 C 
HETATM    4  O   UNL     1      -3.138  -5.269   2.232  1.00  0.00    -0.266 OA
HETATM    5  H   UNL     1      -2.598  -3.421   1.228  1.00  0.00     0.163 HD
BRANCH   3   6
HETATM    6  C   UNL     1      -4.710  -5.860   0.629  1.00  0.00     0.102 C 
HETATM    7  C   UNL     1      -5.704  -5.821  -0.334  1.00  0.00     0.049 C 
HETATM    8  C   UNL     1      -5.965  -7.174  -0.731  1.00  0.00    -0.005 A 
HETATM    9  C   UNL     1      -5.320  -7.997   0.187  1.00  0.00     0.043 A 
HETATM   10  C   UNL     1      -6.622  -7.777  -1.823  1.00  0.00     0.037 A 
HETATM   11  N   UNL     1      -4.715  -7.165   1.091  1.00  0.00    -0.351 N 
HETATM   12  C   UNL     1      -5.308  -9.393   0.103  1.00  0.00     0.032 A 
HETATM   13  H   UNL     1      -4.138  -7.467   1.865  1.00  0.00     0.166 HD
HETATM   14  C   UNL     1      -5.918  -9.968  -1.013  1.00  0.00     0.026 A 
HETATM   15  C   UNL     1      -6.553  -9.171  -1.964  1.00  0.00     0.035 A 
HETATM   16 CL   UNL     1      -7.222  -9.913  -3.368  1.00  0.00    -0.084 Cl
ENDBRANCH   3   6
ENDBRANCH   1   2
BRANCH   1  17
HETATM   17  C   UNL     1      -3.709  -3.638  -1.884  1.00  0.00     0.066 C 
BRANCH  17  18
HETATM   18  C   UNL     1      -2.756  -4.817  -2.009  1.00  0.00    -0.056 C 
HETATM   19  C   UNL     1      -1.439  -4.746  -1.530  1.00  0.00     0.007 C 
HETATM   20  C   UNL     1      -0.667  -5.901  -1.398  1.00  0.00     0.001 C 
HETATM   21  C   UNL     1      -1.183  -7.132  -1.790  1.00  0.00     0.000 C 
HETATM   22  C   UNL     1      -2.446  -7.198  -2.371  1.00  0.00     0.001 C 
HETATM   23  C   UNL     1      -3.217  -6.042  -2.507  1.00  0.00     0.007 C 
ENDBRANCH  17  18
ENDBRANCH   1  17
BRANCH   1  24
HETATM   24  C   UNL     1      -4.632  -1.761  -0.271  1.00  0.00     0.233 C 
BRANCH  24  25
HETATM   25  O   UNL     1      -3.918  -0.673   0.354  1.00  0.00    -0.384 OA
HETATM   26  H   UNL     1      -4.547   0.071   0.406  1.00  0.00     0.210 HD
ENDBRANCH  24  25
BRANCH  24  27
HETATM   27  C   UNL     1      -5.938  -2.047   0.510  1.00  0.00     0.250 C 
HETATM   28  N   UNL     1      -5.988  -1.746   1.866  1.00  0.00    -0.345 N 
HETATM   29  C   UNL     1      -7.258  -1.714   2.601  1.00  0.00     0.160 C 
HETATM   30  C   UNL     1      -4.903  -1.946   2.826  1.00  0.00     0.160 C 
HETATM   31  C   UNL     1      -6.934  -2.211   4.024  1.00  0.00     0.166 C 
HETATM   32  C   UNL     1      -5.561  -2.869   3.853  1.00  0.00     0.166 C 
HETATM   33  O   UNL     1      -6.939  -2.430  -0.100  1.00  0.00    -0.270 OA
BRANCH  31  34
HETATM   34  O   UNL     1      -7.893  -3.149   4.497  1.00  0.00    -0.391 OA
HETATM   35  H   UNL     1      -7.541  -4.034   4.264  1.00  0.00     0.210 HD
ENDBRANCH  31  34
BRANCH  32  36
HETATM   36  O   UNL     1      -5.776  -4.192   3.333  1.00  0.00    -0.391 OA
HETATM   37  H   UNL     1      -6.113  -4.100   2.420  1.00  0.00     0.210 HD
ENDBRANCH  32  36
ENDBRANCH  24  27
ENDBRANCH   1  24
TORSDOF 9
