REMARK  7 active torsions:
REMARK  status: ('A' for Active; 'I' for Inactive)
REMARK    1  A    between atoms: C_1  and  C_3 
REMARK    2  A    between atoms: C_2  and  N_5 
REMARK    3  A    between atoms: N_5  and  C_10 
REMARK    4  A    between atoms: C_10  and  C_14 
REMARK    5  A    between atoms: C_16  and  O_19 
REMARK    6  A    between atoms: C_20  and  O_23 
REMARK    7  A    between atoms: O_23  and  C_24 
ROOT
HETATM    1  N   UNL     1       1.039   0.169   1.811  1.00  0.00     0.094 N 
HETATM    2  H   UNL     1       1.072  -0.749   2.254  1.00  0.00     0.316 HD
ENDROOT
BRANCH   1   3
HETATM    3  C   UNL     1       1.184   0.041   0.340  1.00  0.00     0.258 C 
HETATM    4  C   UNL     1       0.789   1.310  -0.529  1.00  0.00     0.286 C 
HETATM    5  N   UNL     1      -0.646   1.637  -0.353  1.00  0.00     0.094 N 
HETATM    6  C   UNL     1      -1.523   0.517  -0.694  1.00  0.00     0.270 C 
HETATM    7  H   UNL     1      -0.879   2.419  -0.961  1.00  0.00     0.316 HD
HETATM    8  C   UNL     1      -1.184  -0.784   0.029  1.00  0.00     0.032 C 
HETATM    9  C   UNL     1       0.293  -1.130  -0.119  1.00  0.00     0.040 C 
BRANCH   4  10
HETATM   10  C   UNL     1       1.718   2.520  -0.346  1.00  0.00    -0.023 A 
HETATM   11  C   UNL     1       1.240   3.809  -0.046  1.00  0.00     0.009 A 
HETATM   12  C   UNL     1       2.116   4.878   0.170  1.00  0.00     0.001 A 
HETATM   13  C   UNL     1       3.491   4.679   0.103  1.00  0.00     0.000 A 
HETATM   14  C   UNL     1       3.990   3.419  -0.212  1.00  0.00     0.001 A 
HETATM   15  C   UNL     1       3.113   2.358  -0.460  1.00  0.00     0.009 A 
ENDBRANCH   4  10
ENDBRANCH   1   3
BRANCH   1  16
HETATM   16  C   UNL     1       2.084   1.001   2.393  1.00  0.00     0.311 C 
BRANCH  16  17
HETATM   17  C   UNL     1       2.180   0.960   3.901  1.00  0.00     0.006 A 
HETATM   18  C   UNL     1       2.220  -0.220   4.652  1.00  0.00     0.076 A 
HETATM   19  C   UNL     1       2.390  -0.168   6.036  1.00  0.00     0.040 A 
HETATM   20  C   UNL     1       2.560   1.064   6.676  1.00  0.00     0.040 A 
HETATM   21  C   UNL     1       2.540   2.255   5.947  1.00  0.00     0.079 A 
HETATM   22  C   UNL     1       2.352   2.192   4.567  1.00  0.00     0.048 A 
BRANCH  18  23
HETATM   23  O   UNL     1       1.985  -1.442   4.079  1.00  0.00    -0.355 OA
HETATM   24  C   UNL     1       3.166  -1.998   3.504  1.00  0.00     0.210 C 
ENDBRANCH  18  23
BRANCH  21  25
HETATM   25  O   UNL     1       2.715   3.393   6.681  1.00  0.00    -0.255 OA
BRANCH  25  26
HETATM   26  C   UNL     1       2.678   4.633   5.991  1.00  0.00     0.530 C 
HETATM   27  F   UNL     1       3.662   4.710   5.069  1.00  0.00    -0.144 F 
HETATM   28  F   UNL     1       1.483   4.828   5.394  1.00  0.00    -0.144 F 
HETATM   29  F   UNL     1       2.867   5.632   6.882  1.00  0.00    -0.144 F 
ENDBRANCH  25  26
ENDBRANCH  21  25
ENDBRANCH  16  17
ENDBRANCH   1  16
TORSDOF 7
