REMARK  5 active torsions:
REMARK  status: ('A' for Active; 'I' for Inactive)
REMARK    1  A    between atoms: C_1  and  N_2 
REMARK    2  A    between atoms: C_3  and  O_8 
REMARK    3  A    between atoms: C_14  and  C_17 
REMARK    4  A    between atoms: C_14  and  O_18 
REMARK    5  A    between atoms: C_19  and  O_22 
ROOT
HETATM    1  N   UNL     1      -3.659   1.029  -0.136  1.00  0.00     0.098 N 
HETATM    2  C   UNL     1      -4.772   0.083  -0.312  1.00  0.00     0.276 C 
HETATM    3  C   UNL     1      -3.861   2.134  -1.093  1.00  0.00     0.276 C 
HETATM    4  C   UNL     1      -4.817  -0.533  -1.710  1.00  0.00     0.073 C 
HETATM    5  C   UNL     1      -3.888   1.687  -2.561  1.00  0.00     0.073 C 
HETATM    6  C   UNL     1      -4.872   0.521  -2.838  1.00  0.00     0.088 C 
ENDROOT
BRANCH   1   7
HETATM    7  C   UNL     1      -2.296   0.418  -0.254  1.00  0.00     0.280 C 
HETATM    8  C   UNL     1      -1.134   1.407   0.083  1.00  0.00     0.189 C 
HETATM    9  C   UNL     1       0.192   0.701   0.146  1.00  0.00     0.006 A 
HETATM   10  C   UNL     1       0.259  -0.694   0.198  1.00  0.00     0.080 A 
HETATM   11  C   UNL     1       1.386   1.439   0.113  1.00  0.00     0.015 A 
HETATM   12  O   UNL     1      -0.841  -1.503   0.264  1.00  0.00    -0.348 OA
HETATM   13  C   UNL     1       1.490  -1.349   0.140  1.00  0.00     0.073 A 
HETATM   14  C   UNL     1      -2.060  -0.835   0.616  1.00  0.00     0.214 C 
HETATM   15  C   UNL     1       2.660  -0.600   0.072  1.00  0.00     0.068 A 
HETATM   16  C   UNL     1       2.618   0.788   0.075  1.00  0.00     0.037 A 
BRANCH   8  17
HETATM   17  O   UNL     1      -1.317   2.117   1.309  1.00  0.00    -0.389 OA
HETATM   18  H   UNL     1      -1.792   1.535   1.923  1.00  0.00     0.210 HD
ENDBRANCH   8  17
BRANCH  15  19
HETATM   19  O   UNL     1       3.882  -1.200  -0.004  1.00  0.00    -0.361 OA
HETATM   20  H   UNL     1       3.752  -2.162  -0.051  1.00  0.00     0.217 HD
ENDBRANCH  15  19
ENDBRANCH   1   7
BRANCH   6  21
HETATM   21  C   UNL     1      -4.636  -0.069  -4.240  1.00  0.00    -0.024 A 
HETATM   22  C   UNL     1      -4.580   0.785  -5.362  1.00  0.00     0.013 A 
HETATM   23  C   UNL     1      -4.346   0.285  -6.649  1.00  0.00     0.043 A 
HETATM   24  C   UNL     1      -4.184  -1.077  -6.832  1.00  0.00     0.116 A 
HETATM   25  C   UNL     1      -4.259  -1.952  -5.761  1.00  0.00     0.043 A 
HETATM   26  F   UNL     1      -3.960  -1.559  -8.064  1.00  0.00    -0.206 F 
HETATM   27  C   UNL     1      -4.490  -1.451  -4.473  1.00  0.00     0.013 A 
ENDBRANCH   6  21
BRANCH   6  28
HETATM   28  O   UNL     1      -6.206   1.050  -2.884  1.00  0.00    -0.385 OA
HETATM   29  H   UNL     1      -6.395   1.499  -2.045  1.00  0.00     0.211 HD
ENDBRANCH   6  28
TORSDOF 5
