REMARK  7 active torsions:
REMARK  status: ('A' for Active; 'I' for Inactive)
REMARK    1  A    between atoms: C_1  and  N_2 
REMARK    2  A    between atoms: C_1  and  C_5 
REMARK    3  A    between atoms: N_2  and  S_6 
REMARK       I    between atoms: C_5  and  N_9 
REMARK    4  A    between atoms: S_6  and  C_11 
REMARK    5  A    between atoms: N_9  and  O_15 
REMARK    6  A    between atoms: C_20  and  O_21 
REMARK    7  A    between atoms: O_21  and  C_22 
ROOT
HETATM    1  S   UNL     1       1.377   2.352   2.142  1.00  0.00     0.260 S 
HETATM    2  O   UNL     1       2.080   1.168   2.576  1.00  0.00    -0.201 OA
HETATM    3  O   UNL     1       1.996   3.656   2.249  1.00  0.00    -0.201 OA
ENDROOT
BRANCH   1   4
HETATM    4  N   UNL     1       0.931   2.230   0.521  1.00  0.00    -0.296 N 
HETATM    5  H   UNL     1       1.458   2.912  -0.033  1.00  0.00     0.173 HD
BRANCH   4   6
HETATM    6  C   UNL     1       0.461   1.000  -0.230  1.00  0.00     0.127 C 
HETATM    7  C   UNL     1       1.304  -0.244   0.109  1.00  0.00     0.068 C 
HETATM    8  C   UNL     1       0.710  -1.494  -0.526  1.00  0.00     0.170 C 
HETATM    9  O   UNL     1      -0.633  -1.669  -0.077  1.00  0.00    -0.391 OA
HETATM   10  C   UNL     1      -1.487  -0.613  -0.509  1.00  0.00     0.170 C 
HETATM   11  C   UNL     1      -1.010   0.716   0.059  1.00  0.00     0.068 C 
BRANCH   6  12
HETATM   12  C   UNL     1       0.785   1.377  -1.727  1.00  0.00     0.270 C 
HETATM   13  N   UNL     1      -0.130   1.896  -2.591  1.00  0.00    -0.235 N 
HETATM   14  H   UNL     1       0.219   1.954  -3.547  1.00  0.00     0.197 HD
HETATM   15  O   UNL     1       1.958   1.370  -2.127  1.00  0.00    -0.269 OA
BRANCH  13  16
HETATM   16  O   UNL     1      -1.501   1.639  -2.488  1.00  0.00    -0.287 OA
HETATM   17  H   UNL     1      -1.872   2.520  -2.285  1.00  0.00     0.244 HD
ENDBRANCH  13  16
ENDBRANCH   6  12
ENDBRANCH   4   6
ENDBRANCH   1   4
BRANCH   1  18
HETATM   18  C   UNL     1      -0.169   2.443   3.006  1.00  0.00     0.079 C 
HETATM   19  C   UNL     1      -0.868   1.279   3.312  1.00  0.00     0.028 C 
HETATM   20  C   UNL     1      -2.225   1.373   3.627  1.00  0.00     0.039 C 
HETATM   21  C   UNL     1      -2.840   2.623   3.774  1.00  0.00     0.076 C 
HETATM   22  C   UNL     1      -2.030   3.754   3.794  1.00  0.00     0.039 C 
HETATM   23  C   UNL     1      -0.711   3.682   3.341  1.00  0.00     0.028 C 
BRANCH  21  24
HETATM   24  O   UNL     1      -4.201   2.568   3.930  1.00  0.00    -0.311 OA
BRANCH  24  25
HETATM   25  C   UNL     1      -5.079   3.598   3.676  1.00  0.00     0.076 C 
HETATM   26  C   UNL     1      -6.413   3.272   3.969  1.00  0.00     0.040 C 
HETATM   27  C   UNL     1      -7.424   4.233   3.893  1.00  0.00     0.045 C 
HETATM   28  C   UNL     1      -7.099   5.532   3.536  1.00  0.00     0.116 C 
HETATM   29  C   UNL     1      -5.803   5.859   3.169  1.00  0.00     0.045 C 
HETATM   30  F   UNL     1      -8.047   6.478   3.531  1.00  0.00    -0.206 F 
HETATM   31  C   UNL     1      -4.806   4.877   3.189  1.00  0.00     0.040 C 
ENDBRANCH  24  25
ENDBRANCH  21  24
ENDBRANCH   1  18
TORSDOF 7
