REMARK  11 active torsions:
REMARK  status: ('A' for Active; 'I' for Inactive)
REMARK    1  A    between atoms: C_1  and  C_5 
REMARK    2  A    between atoms: C_1  and  C_4 
REMARK    3  A    between atoms: C_4  and  C_8 
REMARK    4  A    between atoms: C_6  and  O_12 
REMARK    5  A    between atoms: C_8  and  C_14 
REMARK    6  A    between atoms: C_11  and  S_15 
REMARK    7  A    between atoms: S_15  and  C_18 
REMARK    8  A    between atoms: C_21  and  C_25 
REMARK    9  A    between atoms: C_23  and  N_27 
REMARK   10  A    between atoms: C_28  and  C_33 
REMARK   11  A    between atoms: C_33  and  O_34 
ROOT
HETATM    1  C   UNL     1       0.293   1.366  -0.017  1.00  0.00     0.080 C 
HETATM    2  C   UNL     1      -1.141   0.808  -0.274  1.00  0.00     0.104 C 
HETATM    3  O   UNL     1       1.270   0.283  -0.018  1.00  0.00    -0.305 OA
HETATM    4  C   UNL     1      -1.321  -0.551   0.351  1.00  0.00     0.069 C 
HETATM    5  C   UNL     1       0.877  -0.965  -0.397  1.00  0.00     0.303 C 
HETATM    6  C   UNL     1      -0.314  -1.446   0.339  1.00  0.00     0.110 C 
HETATM    7  O   UNL     1       1.474  -1.584  -1.264  1.00  0.00    -0.259 OA
ENDROOT
BRANCH   6   8
HETATM    8  S   UNL     1      -0.391  -2.965   1.169  1.00  0.00    -0.081 SA
BRANCH   8   9
HETATM    9  C   UNL     1       0.761  -4.120   0.423  1.00  0.00     0.013 C 
HETATM   10  C   UNL     1       0.447  -5.439  -0.004  1.00  0.00    -0.033 C 
HETATM   11  C   UNL     1       1.549  -6.257  -0.394  1.00  0.00     0.019 C 
HETATM   12  C   UNL     1       2.890  -5.830  -0.422  1.00  0.00    -0.028 C 
HETATM   13  C   UNL     1       3.163  -4.512  -0.066  1.00  0.00    -0.052 C 
HETATM   14  C   UNL     1       2.117  -3.723   0.434  1.00  0.00     0.026 C 
HETATM   15  C   UNL     1       4.535  -3.910  -0.185  1.00  0.00     0.049 C 
BRANCH  10  16
HETATM   16  C   UNL     1      -0.947  -6.140  -0.001  1.00  0.00    -0.023 C 
HETATM   17  C   UNL     1      -1.125  -7.068  -1.241  1.00  0.00     0.019 C 
HETATM   18  C   UNL     1      -1.027  -7.020   1.268  1.00  0.00     0.019 C 
HETATM   19  C   UNL     1      -2.195  -5.233  -0.024  1.00  0.00     0.019 C 
ENDBRANCH  10  16
BRANCH  12  20
HETATM   20  C   UNL     1       3.977  -6.778  -0.877  1.00  0.00     0.203 C 
BRANCH  20  21
HETATM   21  O   UNL     1       3.720  -8.118  -0.466  1.00  0.00    -0.396 OA
HETATM   22  H   UNL     1       3.429  -8.072   0.461  1.00  0.00     0.209 HD
ENDBRANCH  20  21
ENDBRANCH  12  20
ENDBRANCH   8   9
ENDBRANCH   6   8
BRANCH   4  23
HETATM   23  O   UNL     1      -2.546  -0.811   0.938  1.00  0.00    -0.363 OA
HETATM   24  H   UNL     1      -3.210  -0.184   0.601  1.00  0.00     0.217 HD
ENDBRANCH   4  23
BRANCH   1  25
HETATM   25  C   UNL     1       0.404   2.079   1.382  1.00  0.00     0.013 C 
HETATM   26  C   UNL     1      -0.489   3.320   1.533  1.00  0.00     0.012 C 
HETATM   27  C   UNL     1       1.847   2.482   1.748  1.00  0.00     0.012 C 
ENDBRANCH   1  25
BRANCH   1  28
HETATM   28  C   UNL     1       0.694   2.324  -1.180  1.00  0.00     0.044 C 
BRANCH  28  29
HETATM   29  C   UNL     1       1.170   1.588  -2.447  1.00  0.00     0.041 C 
BRANCH  29  30
HETATM   30  C   UNL     1       1.405   2.465  -3.653  1.00  0.00    -0.058 A 
HETATM   31  C   UNL     1       2.043   3.706  -3.564  1.00  0.00     0.009 A 
HETATM   32  C   UNL     1       2.293   4.460  -4.716  1.00  0.00     0.024 A 
HETATM   33  C   UNL     1       1.890   4.005  -5.972  1.00  0.00     0.005 A 
HETATM   34  C   UNL     1       1.337   2.728  -6.070  1.00  0.00     0.024 A 
HETATM   35  C   UNL     1       1.081   1.972  -4.924  1.00  0.00     0.009 A 
BRANCH  33  36
HETATM   36  N   UNL     1       2.253   4.706  -7.127  1.00  0.00    -0.303 NA
HETATM   37  H   UNL     1       2.342   5.707  -6.982  1.00  0.00     0.124 HD
HETATM   38  H   UNL     1       1.677   4.484  -7.933  1.00  0.00     0.124 HD
ENDBRANCH  33  36
ENDBRANCH  29  30
ENDBRANCH  28  29
ENDBRANCH   1  28
TORSDOF 11
