REMARK  5 active torsions:
REMARK  status: ('A' for Active; 'I' for Inactive)
REMARK    1  A    between atoms: C_2  and  O_6 
REMARK    2  A    between atoms: C_5  and  C_10 
REMARK    3  A    between atoms: O_6  and  C_11 
REMARK    4  A    between atoms: C_9  and  O_13 
REMARK       I    between atoms: C_10  and  N_14 
REMARK    5  A    between atoms: N_14  and  C_19 
ROOT
HETATM    1  C   UNL     1       0.619  -0.461  -0.178  1.00  0.00     0.019 A 
HETATM    2  C   UNL     1       1.967  -0.975  -0.351  1.00  0.00     0.103 C 
HETATM    3  C   UNL     1       0.632   0.860   0.262  1.00  0.00     0.019 A 
HETATM    4  C   UNL     1      -0.653  -1.053  -0.420  1.00  0.00     0.052 A 
HETATM    5  C   UNL     1       2.948  -0.026  -0.099  1.00  0.00     0.108 C 
HETATM    6  S   UNL     1       2.229   1.413   0.527  1.00  0.00    -0.081 SA
HETATM    7  C   UNL     1      -0.557   1.599   0.432  1.00  0.00     0.022 A 
HETATM    8  C   UNL     1      -1.846  -0.342  -0.218  1.00  0.00     0.069 A 
HETATM    9  C   UNL     1      -1.789   0.986   0.180  1.00  0.00     0.038 A 
ENDROOT
BRANCH   5  10
HETATM   10  C   UNL     1       4.383   0.060  -0.382  1.00  0.00     0.279 C 
HETATM   11  N   UNL     1       5.167  -1.056  -0.446  1.00  0.00    -0.149 N 
HETATM   12  H   UNL     1       6.027  -0.930  -0.950  1.00  0.00     0.188 HD
HETATM   13  O   UNL     1       4.916   1.118  -0.727  1.00  0.00    -0.266 OA
BRANCH  11  14
HETATM   14  C   UNL     1       5.396  -1.946   0.558  1.00  0.00     0.758 A 
HETATM   15  N   UNL     1       4.816  -1.972   1.765  1.00  0.00     0.032 NA
HETATM   16  N   UNL     1       5.339  -3.089   2.342  1.00  0.00     0.035 NA
HETATM   17  N   UNL     1       6.243  -3.648   1.500  1.00  0.00     0.035 NA
HETATM   18  N   UNL     1       6.331  -2.893   0.378  1.00  0.00     0.032 NA
ENDBRANCH  11  14
ENDBRANCH   5  10
BRANCH   2  19
HETATM   19  O   UNL     1       2.193  -2.173  -0.953  1.00  0.00    -0.344 OA
BRANCH  19  20
HETATM   20  C   UNL     1       2.377  -3.291  -0.064  1.00  0.00     0.120 C 
HETATM   21  C   UNL     1       1.597  -3.282   1.252  1.00  0.00     0.040 C 
HETATM   22  C   UNL     1       2.050  -4.553  -0.861  1.00  0.00     0.040 C 
ENDBRANCH  19  20
ENDBRANCH   2  19
BRANCH   8  23
HETATM   23  O   UNL     1      -2.992  -1.055  -0.453  1.00  0.00    -0.356 OA
HETATM   24  C   UNL     1      -4.221  -0.432  -0.093  1.00  0.00     0.210 C 
ENDBRANCH   8  23
TORSDOF 5
