REMARK  3 active torsions:
REMARK  status: ('A' for Active; 'I' for Inactive)
REMARK    1  A    between atoms: N_5  and  C_10 
REMARK    2  A    between atoms: C_7  and  C_13 
REMARK    3  A    between atoms: C_20  and  O_21 
ROOT
HETATM    1  C   UNL     1      -0.216   0.724   0.219  1.00  0.00     0.117 A 
HETATM    2  C   UNL     1      -0.469  -0.636   0.285  1.00  0.00     0.151 A 
HETATM    3  N   UNL     1       0.979   1.421   0.440  1.00  0.00    -0.246 NA
HETATM    4  C   UNL     1      -1.450   1.356  -0.005  1.00  0.00     0.082 A 
HETATM    5  N   UNL     1      -1.823  -0.747   0.048  1.00  0.00    -0.262 N 
HETATM    6  C   UNL     1       0.474  -1.683   0.559  1.00  0.00     0.272 C 
HETATM    7  C   UNL     1       2.076   0.881  -0.011  1.00  0.00     0.063 C 
HETATM    8  N   UNL     1      -2.428   0.457  -0.138  1.00  0.00    -0.174 NA
HETATM    9  C   UNL     1      -1.753   2.803  -0.102  1.00  0.00     0.075 C 
HETATM   10  N   UNL     1       1.751  -1.497   0.090  1.00  0.00    -0.350 N 
HETATM   11  O   UNL     1       0.233  -2.711   1.186  1.00  0.00    -0.266 OA
HETATM   12  C   UNL     1       2.134  -0.426  -0.800  1.00  0.00     0.183 C 
HETATM   13  H   UNL     1       2.373  -2.278   0.254  1.00  0.00     0.163 HD
ENDROOT
BRANCH   7  14
HETATM   14  C   UNL     1       3.363   1.601   0.234  1.00  0.00    -0.010 A 
HETATM   15  C   UNL     1       3.358   3.003   0.273  1.00  0.00     0.016 A 
HETATM   16  C   UNL     1       4.546   3.708   0.488  1.00  0.00     0.037 A 
HETATM   17  C   UNL     1       5.732   3.004   0.671  1.00  0.00     0.065 A 
HETATM   18  C   UNL     1       5.747   1.614   0.657  1.00  0.00     0.037 A 
HETATM   19  C   UNL     1       4.561   0.908   0.444  1.00  0.00     0.016 A 
BRANCH  17  20
HETATM   20  O   UNL     1       6.915   3.647   0.877  1.00  0.00    -0.361 OA
HETATM   21  H   UNL     1       6.755   4.606   0.879  1.00  0.00     0.217 HD
ENDBRANCH  17  20
ENDBRANCH   7  14
BRANCH   5  22
HETATM   22  C   UNL     1      -2.708  -1.887  -0.125  1.00  0.00     0.147 C 
HETATM   23  C   UNL     1      -2.170  -3.303  -0.155  1.00  0.00     0.028 C 
ENDBRANCH   5  22
TORSDOF 3
