REMARK  11 active torsions:
REMARK  status: ('A' for Active; 'I' for Inactive)
REMARK    1  A    between atoms: C_1  and  N_2 
REMARK    2  A    between atoms: C_1  and  C_5 
REMARK    3  A    between atoms: N_2  and  S_6 
REMARK    4  A    between atoms: N_2  and  C_7 
REMARK       I    between atoms: C_5  and  N_10 
REMARK    5  A    between atoms: S_6  and  C_12 
REMARK    6  A    between atoms: C_7  and  C_15 
REMARK    7  A    between atoms: N_10  and  O_16 
REMARK    8  A    between atoms: C_15  and  C_19 
REMARK    9  A    between atoms: C_19  and  O_22 
REMARK   10  A    between atoms: C_24  and  O_25 
REMARK   11  A    between atoms: O_25  and  C_26 
ROOT
HETATM    1  N   UNL     1      -1.274  -0.907  -1.372  1.00  0.00    -0.287 N 
ENDROOT
BRANCH   1   2
HETATM    2  C   UNL     1      -0.712  -1.005   0.065  1.00  0.00     0.125 C 
HETATM    3  C   UNL     1       0.839  -1.209   0.110  1.00  0.00     0.042 C 
HETATM    4  C   UNL     1       1.504   0.166   0.156  1.00  0.00     0.003 C 
HETATM    5  C   UNL     1       0.385   1.165   0.383  1.00  0.00     0.003 C 
HETATM    6  C   UNL     1      -0.811   0.330   0.824  1.00  0.00     0.042 C 
BRANCH   2   7
HETATM    7  C   UNL     1      -1.264  -2.258   0.808  1.00  0.00     0.270 C 
HETATM    8  N   UNL     1      -2.173  -2.141   1.815  1.00  0.00    -0.235 N 
HETATM    9  H   UNL     1      -2.530  -2.996   2.229  1.00  0.00     0.197 HD
HETATM   10  O   UNL     1      -0.867  -3.392   0.513  1.00  0.00    -0.269 OA
BRANCH   8  11
HETATM   11  O   UNL     1      -2.974  -0.996   1.960  1.00  0.00    -0.287 OA
HETATM   12  H   UNL     1      -3.634  -1.144   1.242  1.00  0.00     0.244 HD
ENDBRANCH   8  11
ENDBRANCH   2   7
ENDBRANCH   1   2
BRANCH   1  13
HETATM   13  S   UNL     1      -2.966  -0.924  -1.623  1.00  0.00     0.262 S 
HETATM   14  O   UNL     1      -3.260  -1.367  -2.965  1.00  0.00    -0.200 OA
HETATM   15  O   UNL     1      -3.618  -1.543  -0.489  1.00  0.00    -0.200 OA
BRANCH  13  16
HETATM   16  C   UNL     1      -3.475   0.783  -1.556  1.00  0.00     0.079 A 
HETATM   17  C   UNL     1      -4.817   1.056  -1.275  1.00  0.00     0.028 A 
HETATM   18  C   UNL     1      -5.238   2.381  -1.139  1.00  0.00     0.039 A 
HETATM   19  C   UNL     1      -4.323   3.434  -1.255  1.00  0.00     0.076 A 
HETATM   20  C   UNL     1      -2.976   3.143  -1.480  1.00  0.00     0.039 A 
HETATM   21  C   UNL     1      -2.563   1.827  -1.679  1.00  0.00     0.028 A 
BRANCH  19  22
HETATM   22  O   UNL     1      -4.857   4.690  -1.078  1.00  0.00    -0.311 OA
BRANCH  22  23
HETATM   23  C   UNL     1      -4.141   5.817  -1.403  1.00  0.00     0.076 A 
HETATM   24  C   UNL     1      -4.259   6.891  -0.514  1.00  0.00     0.040 A 
HETATM   25  C   UNL     1      -3.581   8.084  -0.764  1.00  0.00     0.045 A 
HETATM   26  C   UNL     1      -2.787   8.193  -1.900  1.00  0.00     0.116 A 
HETATM   27  C   UNL     1      -2.691   7.147  -2.811  1.00  0.00     0.045 A 
HETATM   28  F   UNL     1      -2.113   9.328  -2.128  1.00  0.00    -0.206 F 
HETATM   29  C   UNL     1      -3.400   5.966  -2.580  1.00  0.00     0.040 A 
ENDBRANCH  22  23
ENDBRANCH  19  22
ENDBRANCH  13  16
ENDBRANCH   1  13
BRANCH   1  30
HETATM   30  C   UNL     1      -0.298  -0.782  -2.507  1.00  0.00     0.147 C 
BRANCH  30  31
HETATM   31  C   UNL     1      -0.831  -0.464  -3.901  1.00  0.00     0.130 C 
BRANCH  31  32
HETATM   32  C   UNL     1       0.280  -0.121  -4.864  1.00  0.00     0.141 C 
HETATM   33  O   UNL     1       0.522  -0.759  -5.876  1.00  0.00    -0.650 OA
BRANCH  32  34
HETATM   34  O   UNL     1       0.971   0.997  -4.549  1.00  0.00    -0.776 OA
HETATM   35  H   UNL     1       0.657   1.495  -3.774  1.00  0.00     0.167 HD
ENDBRANCH  32  34
ENDBRANCH  31  32
ENDBRANCH  30  31
ENDBRANCH   1  30
TORSDOF 11
