REMARK  6 active torsions:
REMARK  status: ('A' for Active; 'I' for Inactive)
REMARK    1  A    between atoms: C_7  and  S_10 
REMARK    2  A    between atoms: S_10  and  C_12 
REMARK    3  A    between atoms: C_12  and  C_14 
REMARK    4  A    between atoms: C_14  and  N_15 
REMARK    5  A    between atoms: C_20  and  C_21 
REMARK    6  A    between atoms: C_21  and  C_22 
ROOT
HETATM    1  C   UNL     1       2.773  -3.430  -1.477  1.00  0.00     0.285 C 
ENDROOT
BRANCH   1   2
HETATM    2  C   UNL     1       3.751  -2.254  -1.430  1.00  0.00     0.144 C 
BRANCH   2   3
HETATM    3  S   UNL     1       3.711  -1.459   0.226  1.00  0.00     0.051 S 
HETATM    4  O   UNL     1       4.768  -0.394   0.227  1.00  0.00    -0.253 OA
BRANCH   3   5
HETATM    5  C   UNL     1       2.128  -0.583   0.112  1.00  0.00     0.034 A 
HETATM    6  C   UNL     1       0.925  -1.291   0.257  1.00  0.00     0.060 A 
HETATM    7  C   UNL     1      -0.251  -0.581   0.160  1.00  0.00     0.109 A 
HETATM    8  C   UNL     1      -0.256   0.784  -0.016  1.00  0.00     0.071 A 
HETATM    9  O   UNL     1      -1.528  -1.115   0.229  1.00  0.00    -0.259 OA
HETATM   10  C   UNL     1       0.895   1.527  -0.114  1.00  0.00     0.034 A 
HETATM   11  N   UNL     1      -1.567   1.158  -0.056  1.00  0.00    -0.300 N 
HETATM   12  C   UNL     1       2.104   0.822  -0.054  1.00  0.00     0.023 A 
HETATM   13  C   UNL     1      -2.331   0.023   0.080  1.00  0.00     0.370 A 
HETATM   14  H   UNL     1      -1.950   2.082  -0.168  1.00  0.00     0.171 HD
HETATM   15  O   UNL     1      -3.554  -0.003   0.073  1.00  0.00    -0.238 OA
ENDBRANCH   3   5
ENDBRANCH   2   3
ENDBRANCH   1   2
BRANCH   1  16
HETATM   16  N   UNL     1       2.876  -4.359  -2.615  1.00  0.00     0.089 N 
HETATM   17  C   UNL     1       1.761  -5.330  -2.571  1.00  0.00     0.272 C 
HETATM   18  C   UNL     1       1.916  -6.385  -1.466  1.00  0.00     0.035 C 
HETATM   19  C   UNL     1       3.231  -7.167  -1.607  1.00  0.00    -0.007 C 
HETATM   20  C   UNL     1       4.382  -6.140  -1.646  1.00  0.00     0.035 C 
HETATM   21  C   UNL     1       4.163  -5.063  -2.717  1.00  0.00     0.272 C 
BRANCH  19  22
HETATM   22  C   UNL     1       3.289  -8.095  -2.847  1.00  0.00     0.043 C 
BRANCH  22  23
HETATM   23  C   UNL     1       2.306  -9.245  -2.849  1.00  0.00    -0.058 A 
HETATM   24  C   UNL     1       2.740 -10.550  -2.571  1.00  0.00     0.010 A 
HETATM   25  C   UNL     1       1.838 -11.617  -2.599  1.00  0.00     0.043 A 
HETATM   26  C   UNL     1       0.499 -11.379  -2.886  1.00  0.00     0.116 A 
HETATM   27  C   UNL     1       0.048 -10.098  -3.168  1.00  0.00     0.043 A 
HETATM   28  F   UNL     1      -0.367 -12.400  -2.901  1.00  0.00    -0.206 F 
HETATM   29  C   UNL     1       0.955  -9.038  -3.171  1.00  0.00     0.010 A 
ENDBRANCH  22  23
ENDBRANCH  19  22
ENDBRANCH   1  16
TORSDOF 6
