REMARK  7 active torsions:
REMARK  status: ('A' for Active; 'I' for Inactive)
REMARK    1  A    between atoms: C_1  and  C_3 
REMARK    2  A    between atoms: C_2  and  O_5 
REMARK       I    between atoms: C_3  and  N_7 
REMARK    3  A    between atoms: O_5  and  C_10 
REMARK    4  A    between atoms: N_7  and  C_12 
REMARK    5  A    between atoms: C_12  and  C_15 
REMARK    6  A    between atoms: C_24  and  C_25 
REMARK    7  A    between atoms: C_25  and  O_28 
ROOT
HETATM    1  C   UNL     1      -0.276  -2.469  -1.112  1.00  0.00     0.256 C 
HETATM    2  N   UNL     1      -1.434  -3.188  -0.916  1.00  0.00    -0.352 N 
HETATM    3  O   UNL     1       0.573  -2.877  -1.897  1.00  0.00    -0.267 OA
HETATM    4  H   UNL     1      -1.438  -4.058  -1.436  1.00  0.00     0.163 HD
ENDROOT
BRANCH   1   5
HETATM    5  C   UNL     1      -0.087  -1.180  -0.421  1.00  0.00     0.085 A 
HETATM    6  C   UNL     1       1.061  -0.839   0.294  1.00  0.00     0.185 A 
HETATM    7  N   UNL     1       1.216   0.390   0.862  1.00  0.00    -0.236 NA
HETATM    8  C   UNL     1       0.243   1.308   0.684  1.00  0.00     0.119 A 
HETATM    9  C   UNL     1      -0.900   1.072  -0.052  1.00  0.00     0.020 A 
HETATM   10  C   UNL     1      -1.061  -0.188  -0.616  1.00  0.00     0.023 A 
BRANCH   6  11
HETATM   11  O   UNL     1       2.227  -1.557   0.337  1.00  0.00    -0.291 OA
BRANCH  11  12
HETATM   12  C   UNL     1       2.265  -2.885   0.668  1.00  0.00     0.078 A 
HETATM   13  C   UNL     1       3.359  -3.579   0.134  1.00  0.00     0.040 A 
HETATM   14  C   UNL     1       3.536  -4.935   0.398  1.00  0.00     0.045 A 
HETATM   15  C   UNL     1       2.617  -5.589   1.206  1.00  0.00     0.116 A 
HETATM   16  C   UNL     1       1.543  -4.905   1.771  1.00  0.00     0.045 A 
HETATM   17  F   UNL     1       2.772  -6.896   1.455  1.00  0.00    -0.206 F 
HETATM   18  C   UNL     1       1.372  -3.539   1.517  1.00  0.00     0.040 A 
ENDBRANCH  11  12
ENDBRANCH   6  11
ENDBRANCH   1   5
BRANCH   2  19
HETATM   19  C   UNL     1      -2.468  -3.010   0.094  1.00  0.00     0.161 C 
BRANCH  19  20
HETATM   20  C   UNL     1      -3.589  -4.009  -0.057  1.00  0.00    -0.041 A 
HETATM   21  C   UNL     1      -3.340  -5.386  -0.012  1.00  0.00     0.009 A 
HETATM   22  C   UNL     1      -4.380  -6.307  -0.190  1.00  0.00     0.011 A 
HETATM   23  C   UNL     1      -5.705  -5.886  -0.400  1.00  0.00    -0.025 A 
HETATM   24  C   UNL     1      -5.953  -4.504  -0.388  1.00  0.00     0.011 A 
HETATM   25  C   UNL     1      -4.912  -3.580  -0.226  1.00  0.00     0.009 A 
BRANCH  23  26
HETATM   26  C   UNL     1      -6.816  -6.904  -0.655  1.00  0.00     0.077 C 
HETATM   27  C   UNL     1      -6.538  -7.713  -1.931  1.00  0.00     0.051 C 
HETATM   28  C   UNL     1      -7.002  -7.848   0.538  1.00  0.00     0.051 C 
BRANCH  26  29
HETATM   29  O   UNL     1      -8.076  -6.245  -0.841  1.00  0.00    -0.386 OA
HETATM   30  H   UNL     1      -8.051  -5.819  -1.714  1.00  0.00     0.211 HD
ENDBRANCH  26  29
ENDBRANCH  23  26
ENDBRANCH  19  20
ENDBRANCH   2  19
TORSDOF 7
