REMARK  9 active torsions:
REMARK  status: ('A' for Active; 'I' for Inactive)
REMARK    1  A    between atoms: C_3  and  N_7 
REMARK       I    between atoms: N_5  and  C_11 
REMARK    2  A    between atoms: N_7  and  C_13 
REMARK       I    between atoms: N_7  and  C_14 
REMARK    3  A    between atoms: C_9  and  C_15 
REMARK    4  A    between atoms: C_10  and  C_16 
REMARK    5  A    between atoms: C_11  and  O_17 
REMARK    6  A    between atoms: C_13  and  C_19 
REMARK    7  A    between atoms: O_17  and  C_26 
REMARK    8  A    between atoms: C_31  and  C_34 
REMARK    9  A    between atoms: C_32  and  C_35 
ROOT
HETATM    1  C   UNL     1       0.058   0.887   0.108  1.00  0.00    -0.007 C 
HETATM    2  C   UNL     1       0.103  -0.437  -0.330  1.00  0.00     0.048 C 
HETATM    3  C   UNL     1      -1.249   1.605   0.282  1.00  0.00     0.124 C 
HETATM    4  C   UNL     1       1.254   1.620   0.298  1.00  0.00     0.027 C 
HETATM    5  N   UNL     1      -1.012  -1.345  -0.127  1.00  0.00    -0.288 N 
HETATM    6  C   UNL     1       1.278  -0.773  -0.986  1.00  0.00     0.031 C 
HETATM    7  C   UNL     1      -2.458   0.695   0.287  1.00  0.00     0.056 C 
HETATM    8  C   UNL     1       2.490   1.117  -0.099  1.00  0.00     0.048 C 
HETATM    9  C   UNL     1      -2.175  -0.759   0.679  1.00  0.00     0.097 C 
HETATM   10  C   UNL     1      -0.968  -2.762  -0.352  1.00  0.00     0.368 C 
HETATM   11  C   UNL     1       2.476  -0.060  -0.830  1.00  0.00     0.018 C 
HETATM   12  O   UNL     1      -1.957  -3.481  -0.184  1.00  0.00    -0.238 OA
ENDROOT
BRANCH   3  13
HETATM   13  N   UNL     1      -1.392   2.770  -0.661  1.00  0.00    -0.339 N 
HETATM   14  C   UNL     1      -1.044   4.082  -0.301  1.00  0.00     0.216 C 
HETATM   15  C   UNL     1      -0.746   4.465   1.131  1.00  0.00     0.117 C 
HETATM   16  O   UNL     1      -0.957   4.979  -1.149  1.00  0.00    -0.274 OA
BRANCH  13  17
HETATM   17  C   UNL     1      -1.419   2.601  -2.149  1.00  0.00     0.165 C 
BRANCH  17  18
HETATM   18  C   UNL     1      -1.983   1.345  -2.780  1.00  0.00    -0.039 C 
HETATM   19  C   UNL     1      -1.128   0.336  -3.247  1.00  0.00     0.025 C 
HETATM   20  C   UNL     1      -1.626  -0.904  -3.679  1.00  0.00     0.049 C 
HETATM   21  C   UNL     1      -3.012  -1.122  -3.655  1.00  0.00     0.032 C 
HETATM   22  C   UNL     1      -3.894  -0.105  -3.261  1.00  0.00     0.049 C 
HETATM   23  C   UNL     1      -3.370   1.147  -2.887  1.00  0.00     0.025 C 
BRANCH  20  24
HETATM   24  C   UNL     1      -0.701  -2.011  -4.131  1.00  0.00     0.417 C 
HETATM   25  F   UNL     1      -0.900  -3.172  -3.455  1.00  0.00    -0.166 F 
HETATM   26  F   UNL     1      -0.864  -2.319  -5.447  1.00  0.00    -0.166 F 
HETATM   27  F   UNL     1       0.621  -1.711  -3.982  1.00  0.00    -0.166 F 
ENDBRANCH  20  24
BRANCH  22  28
HETATM   28  C   UNL     1      -5.380  -0.364  -3.156  1.00  0.00     0.417 C 
HETATM   29  F   UNL     1      -5.890   0.049  -1.961  1.00  0.00    -0.166 F 
HETATM   30  F   UNL     1      -6.095   0.284  -4.113  1.00  0.00    -0.166 F 
HETATM   31  F   UNL     1      -5.710  -1.681  -3.262  1.00  0.00    -0.166 F 
ENDBRANCH  22  28
ENDBRANCH  17  18
ENDBRANCH  13  17
ENDBRANCH   3  13
BRANCH   9  32
HETATM   32  C   UNL     1      -3.543  -1.520   0.608  1.00  0.00     0.021 C 
HETATM   33  C   UNL     1      -4.761  -0.794   1.191  1.00  0.00     0.007 C 
ENDBRANCH   9  32
BRANCH   8  34
HETATM   34  C   UNL     1       3.754   1.903   0.131  1.00  0.00     0.417 C 
HETATM   35  F   UNL     1       3.998   2.791  -0.869  1.00  0.00    -0.166 F 
HETATM   36  F   UNL     1       3.717   2.632   1.282  1.00  0.00    -0.166 F 
HETATM   37  F   UNL     1       4.862   1.118   0.223  1.00  0.00    -0.166 F 
ENDBRANCH   8  34
BRANCH  10  38
HETATM   38  O   UNL     1       0.099  -3.339  -0.983  1.00  0.00    -0.299 OA
BRANCH  38  39
HETATM   39  C   UNL     1       1.423  -3.726  -0.491  1.00  0.00     0.125 C 
HETATM   40  C   UNL     1       1.724  -3.536   0.985  1.00  0.00     0.040 C 
HETATM   41  C   UNL     1       1.768  -5.127  -0.993  1.00  0.00     0.040 C 
ENDBRANCH  38  39
ENDBRANCH  10  38
TORSDOF 9
