REMARK  3 active torsions:
REMARK  status: ('A' for Active; 'I' for Inactive)
REMARK    1  A    between atoms: C_1  and  N_3 
REMARK    2  A    between atoms: C_2  and  C_5 
REMARK    3  A    between atoms: N_17  and  C_21 
ROOT
HETATM    1  C   UNL     1      -1.818  -2.340  -0.304  1.00  0.00     0.038 C 
HETATM    2  C   UNL     1      -2.271  -2.631  -1.539  1.00  0.00     0.069 C 
HETATM    3  C   UNL     1      -2.951  -3.967  -1.750  1.00  0.00     0.265 C 
HETATM    4  S   UNL     1      -1.990  -1.621  -2.925  1.00  0.00    -0.123 SA
HETATM    5  N   UNL     1      -3.853  -4.033  -2.826  1.00  0.00    -0.313 N 
HETATM    6  O   UNL     1      -2.693  -4.910  -0.997  1.00  0.00    -0.267 OA
HETATM    7  C   UNL     1      -3.561  -1.773  -3.809  1.00  0.00     0.100 C 
HETATM    8  C   UNL     1      -4.516  -2.783  -3.193  1.00  0.00     0.143 C 
ENDROOT
BRANCH   1   9
HETATM    9  C   UNL     1      -1.050  -1.130   0.047  1.00  0.00    -0.008 A 
HETATM   10  C   UNL     1      -1.626   0.111   0.415  1.00  0.00     0.040 A 
HETATM   11  C   UNL     1      -0.736   1.202   0.526  1.00  0.00     0.030 A 
HETATM   12  C   UNL     1       0.641   1.084   0.308  1.00  0.00     0.002 A 
HETATM   13  C   UNL     1       1.186  -0.148  -0.015  1.00  0.00     0.001 A 
HETATM   14  C   UNL     1       0.345  -1.248  -0.143  1.00  0.00     0.014 A 
BRANCH  10  15
HETATM   15  N   UNL     1      -2.969   0.333   0.687  1.00  0.00    -0.377 N 
HETATM   16  C   UNL     1      -3.854  -0.629   1.346  1.00  0.00     0.153 C 
HETATM   17  C   UNL     1      -4.957  -1.124   0.383  1.00  0.00     0.291 C 
HETATM   18  N   UNL     1      -5.675  -0.104  -0.419  1.00  0.00     0.087 N 
HETATM   19  C   UNL     1      -4.738   0.925  -0.930  1.00  0.00     0.291 C 
HETATM   20  C   UNL     1      -6.769   0.488   0.342  1.00  0.00     0.310 C 
HETATM   21  C   UNL     1      -3.678   1.457   0.063  1.00  0.00     0.153 C 
ENDBRANCH  10  15
ENDBRANCH   1   9
BRANCH   5  22
HETATM   22  C   UNL     1      -4.096  -5.252  -3.553  1.00  0.00     0.039 A 
HETATM   23  C   UNL     1      -5.148  -5.381  -4.474  1.00  0.00     0.055 A 
HETATM   24  C   UNL     1      -5.305  -6.537  -5.257  1.00  0.00     0.058 A 
HETATM   25  C   UNL     1      -4.415  -7.601  -5.126  1.00  0.00     0.055 A 
HETATM   26 CL   UNL     1      -6.620  -6.567  -6.381  1.00  0.00    -0.082 Cl
HETATM   27  C   UNL     1      -3.381  -7.508  -4.200  1.00  0.00     0.028 A 
HETATM   28 CL   UNL     1      -4.526  -9.036  -6.079  1.00  0.00    -0.083 Cl
HETATM   29  C   UNL     1      -3.227  -6.349  -3.427  1.00  0.00     0.031 A 
ENDBRANCH   5  22
TORSDOF 3
