REMARK  12 active torsions:
REMARK  status: ('A' for Active; 'I' for Inactive)
REMARK    1  A    between atoms: C_1  and  C_4 
REMARK    2  A    between atoms: C_4  and  C_7 
REMARK    3  A    between atoms: C_4  and  O_8 
REMARK    4  A    between atoms: C_5  and  C_9 
REMARK    5  A    between atoms: C_7  and  N_10 
REMARK    6  A    between atoms: N_10  and  C_14 
REMARK    7  A    between atoms: C_14  and  C_15 
REMARK    8  A    between atoms: C_15  and  C_17 
REMARK    9  A    between atoms: C_22  and  O_23 
REMARK   10  A    between atoms: O_23  and  C_24 
REMARK   11  A    between atoms: C_24  and  C_25 
REMARK   12  A    between atoms: C_25  and  O_26 
ROOT
HETATM    1  N   UNL     1       1.312  -3.336   0.982  1.00  0.00     0.090 N 
HETATM    2  H   UNL     1       1.773  -2.434   0.819  1.00  0.00     0.316 HD
ENDROOT
BRANCH   1   3
HETATM    3  C   UNL     1      -0.132  -3.143   0.787  1.00  0.00     0.308 C 
BRANCH   3   4
HETATM    4  C   UNL     1      -0.599  -2.304  -0.429  1.00  0.00     0.198 C 
BRANCH   4   5
HETATM    5  C   UNL     1      -0.301  -0.834  -0.265  1.00  0.00     0.072 A 
HETATM    6  N   UNL     1       1.022  -0.421  -0.154  1.00  0.00    -0.238 NA
HETATM    7  C   UNL     1       1.095   0.899  -0.070  1.00  0.00     0.181 A 
HETATM    8  S   UNL     1      -0.431   1.704  -0.055  1.00  0.00    -0.075 SA
HETATM    9  C   UNL     1      -1.222   0.197  -0.218  1.00  0.00     0.081 A 
BRANCH   7  10
HETATM   10  C   UNL     1       2.352   1.719   0.008  1.00  0.00     0.441 C 
HETATM   11  F   UNL     1       2.484   2.562  -1.052  1.00  0.00    -0.164 F 
HETATM   12  F   UNL     1       2.390   2.493   1.128  1.00  0.00    -0.164 F 
HETATM   13  F   UNL     1       3.475   0.953   0.035  1.00  0.00    -0.164 F 
ENDBRANCH   7  10
ENDBRANCH   4   5
BRANCH   4  14
HETATM   14  O   UNL     1      -2.015  -2.525  -0.595  1.00  0.00    -0.388 OA
HETATM   15  H   UNL     1      -2.420  -2.421   0.282  1.00  0.00     0.210 HD
ENDBRANCH   4  14
ENDBRANCH   3   4
ENDBRANCH   1   3
BRANCH   1  16
HETATM   16  C   UNL     1       1.662  -3.827   2.337  1.00  0.00     0.220 C 
HETATM   17  C   UNL     1       3.196  -3.803   2.433  1.00  0.00     0.043 C 
BRANCH  16  18
HETATM   18  C   UNL     1       1.169  -5.264   2.711  1.00  0.00     0.073 C 
BRANCH  18  19
HETATM   19  C   UNL     1      -0.327  -5.484   2.830  1.00  0.00    -0.056 C 
HETATM   20  C   UNL     1      -0.899  -6.646   2.294  1.00  0.00     0.010 C 
HETATM   21  C   UNL     1      -2.287  -6.768   2.182  1.00  0.00     0.037 C 
HETATM   22  C   UNL     1      -3.117  -5.725   2.588  1.00  0.00     0.069 C 
HETATM   23  C   UNL     1      -2.564  -4.630   3.252  1.00  0.00     0.037 C 
HETATM   24  C   UNL     1      -1.177  -4.531   3.406  1.00  0.00     0.010 C 
BRANCH  22  25
HETATM   25  O   UNL     1      -4.450  -5.870   2.308  1.00  0.00    -0.341 OA
BRANCH  25  26
HETATM   26  C   UNL     1      -5.118  -4.641   1.993  1.00  0.00     0.285 C 
BRANCH  26  27
HETATM   27  C   UNL     1      -6.498  -4.944   1.434  1.00  0.00     0.164 C 
HETATM   28  O   UNL     1      -7.331  -4.084   1.180  1.00  0.00    -0.648 OA
BRANCH  27  29
HETATM   29  O   UNL     1      -6.721  -6.263   1.229  1.00  0.00    -0.775 OA
HETATM   30  H   UNL     1      -5.931  -6.777   1.509  1.00  0.00     0.167 HD
ENDBRANCH  27  29
ENDBRANCH  26  27
ENDBRANCH  25  26
ENDBRANCH  22  25
ENDBRANCH  18  19
ENDBRANCH  16  18
ENDBRANCH   1  16
TORSDOF 12
