REMARK  4 active torsions:
REMARK  status: ('A' for Active; 'I' for Inactive)
REMARK    1  A    between atoms: C_9  and  N_10 
REMARK    2  A    between atoms: N_13  and  C_16 
REMARK    3  A    between atoms: C_16  and  C_17 
REMARK    4  A    between atoms: C_17  and  C_18 
ROOT
HETATM    1  C   UNL     1       4.180  -5.181   0.180  1.00  0.00     0.121 C 
ENDROOT
BRANCH   1   2
HETATM    2  N   UNL     1       3.086  -4.979  -0.773  1.00  0.00    -0.410 N 
HETATM    3  C   UNL     1       3.355  -4.093  -1.909  1.00  0.00     0.131 C 
HETATM    4  C   UNL     1       3.005  -2.610  -1.703  1.00  0.00     0.116 C 
HETATM    5  N   UNL     1       1.615  -2.403  -1.209  1.00  0.00    -0.263 NA
HETATM    6  C   UNL     1       1.312  -3.265  -0.043  1.00  0.00     0.116 C 
HETATM    7  C   UNL     1       1.745  -4.736  -0.238  1.00  0.00     0.131 C 
BRANCH   5   8
HETATM    8  C   UNL     1       1.239  -1.069  -1.115  1.00  0.00     0.125 A 
HETATM    9  C   UNL     1      -0.110  -0.617  -0.753  1.00  0.00     0.024 A 
HETATM   10  C   UNL     1      -0.134   0.779  -0.643  1.00  0.00     0.037 A 
HETATM   11  C   UNL     1      -1.336  -1.291  -0.506  1.00  0.00     0.016 A 
HETATM   12  C   UNL     1      -1.273   1.498  -0.240  1.00  0.00     0.021 A 
HETATM   13  S   UNL     1       1.403   1.380  -1.092  1.00  0.00     0.013 SA
HETATM   14  C   UNL     1      -2.440   0.791   0.045  1.00  0.00     0.001 A 
HETATM   15  C   UNL     1      -2.477  -0.588  -0.097  1.00  0.00     0.001 A 
HETATM   16  N   UNL     1       2.102  -0.078  -1.358  1.00  0.00    -0.198 NA
ENDBRANCH   5   8
ENDBRANCH   1   2
BRANCH   1  17
HETATM   17  C   UNL     1       4.663  -4.065   1.138  1.00  0.00     0.058 C 
BRANCH  17  18
HETATM   18  C   UNL     1       3.738  -3.665   2.265  1.00  0.00    -0.055 A 
HETATM   19  C   UNL     1       3.591  -2.310   2.594  1.00  0.00     0.017 A 
HETATM   20  C   UNL     1       2.630  -1.879   3.529  1.00  0.00    -0.022 A 
HETATM   21  C   UNL     1       1.859  -2.850   4.200  1.00  0.00     0.047 A 
HETATM   22  C   UNL     1       2.439  -0.394   3.846  1.00  0.00    -0.010 C 
HETATM   23  C   UNL     1       2.037  -4.220   3.935  1.00  0.00    -0.034 A 
HETATM   24  N   UNL     1       0.932  -2.433   5.163  1.00  0.00    -0.326 N 
HETATM   25  C   UNL     1       2.995  -4.607   2.982  1.00  0.00     0.016 A 
HETATM   26  C   UNL     1       1.188  -5.319   4.515  1.00  0.00     0.050 C 
HETATM   27  C   UNL     1       0.560  -1.141   5.383  1.00  0.00     0.223 C 
HETATM   28  H   UNL     1       0.503  -3.099   5.789  1.00  0.00     0.169 HD
HETATM   29  C   UNL     1       1.011  -0.137   4.360  1.00  0.00     0.116 C 
HETATM   30  O   UNL     1      -0.201  -0.850   6.302  1.00  0.00    -0.273 OA
HETATM   31  C   UNL     1       2.614   0.503   2.600  1.00  0.00     0.020 C 
HETATM   32  C   UNL     1       3.473   0.031   4.905  1.00  0.00     0.020 C 
ENDBRANCH  17  18
ENDBRANCH   1  17
TORSDOF 4
