REMARK  4 active torsions:
REMARK  status: ('A' for Active; 'I' for Inactive)
REMARK    1  A    between atoms: C_2  and  C_5 
REMARK       I    between atoms: C_5  and  N_11 
REMARK    2  A    between atoms: N_11  and  C_14 
REMARK    3  A    between atoms: C_19  and  C_20 
REMARK    4  A    between atoms: C_20  and  N_21 
ROOT
HETATM    1  C   UNL     1      -1.678   2.469  -0.430  1.00  0.00     0.258 C 
HETATM    2  N   UNL     1      -0.776   3.418   0.002  1.00  0.00    -0.323 N 
HETATM    3  O   UNL     1      -2.819   2.859  -0.694  1.00  0.00    -0.267 OA
HETATM    4  H   UNL     1      -1.237   4.256   0.337  1.00  0.00     0.169 HD
ENDROOT
BRANCH   1   5
HETATM    5  C   UNL     1      -1.416   1.033  -0.181  1.00  0.00     0.063 A 
HETATM    6  C   UNL     1      -0.290   0.145  -0.212  1.00  0.00     0.049 A 
HETATM    7  C   UNL     1      -0.677  -1.067   0.349  1.00  0.00     0.024 A 
HETATM    8  C   UNL     1       1.085   0.183  -0.686  1.00  0.00     0.162 C 
HETATM    9  N   UNL     1      -2.016  -1.020   0.585  1.00  0.00    -0.367 N 
HETATM   10  C   UNL     1       0.190  -2.253   0.641  1.00  0.00     0.058 C 
HETATM   11  C   UNL     1      -2.467   0.231   0.275  1.00  0.00     0.106 A 
HETATM   12  H   UNL     1      -2.584  -1.776   0.950  1.00  0.00     0.165 HD
HETATM   13  C   UNL     1       1.665  -2.006   0.249  1.00  0.00     0.014 C 
HETATM   14  C   UNL     1       2.057  -0.524   0.243  1.00  0.00     0.084 C 
HETATM   15  O   UNL     1       1.384   0.442  -1.847  1.00  0.00    -0.292 OA
ENDBRANCH   1   5
BRANCH   2  16
HETATM   16  C   UNL     1       0.553   3.615  -0.383  1.00  0.00     0.035 C 
HETATM   17  C   UNL     1       1.387   4.340   0.470  1.00  0.00     0.030 C 
HETATM   18  C   UNL     1       2.764   4.378   0.234  1.00  0.00     0.011 C 
HETATM   19  C   UNL     1       3.302   3.736  -0.887  1.00  0.00    -0.030 C 
HETATM   20  C   UNL     1       2.425   3.197  -1.836  1.00  0.00     0.011 C 
HETATM   21  C   UNL     1       1.053   3.145  -1.586  1.00  0.00     0.030 C 
BRANCH  19  22
HETATM   22  C   UNL     1       4.787   3.485  -1.014  1.00  0.00     0.307 C 
BRANCH  22  23
HETATM   23  N   UNL     1       5.066   2.081  -0.690  1.00  0.00     0.083 N 
HETATM   24  C   UNL     1       6.459   1.738  -0.920  1.00  0.00     0.307 C 
HETATM   25  H   UNL     1       4.476   1.491  -1.279  1.00  0.00     0.315 HD
ENDBRANCH  22  23
ENDBRANCH  19  22
ENDBRANCH   2  16
TORSDOF 4
