REMARK  7 active torsions:
REMARK  status: ('A' for Active; 'I' for Inactive)
REMARK    1  A    between atoms: C_1  and  O_3 
REMARK    2  A    between atoms: C_2  and  C_5 
REMARK    3  A    between atoms: O_3  and  C_7 
REMARK       I    between atoms: C_5  and  N_9 
REMARK    4  A    between atoms: N_9  and  C_14 
REMARK    5  A    between atoms: C_14  and  C_17 
REMARK    6  A    between atoms: C_26  and  C_27 
REMARK    7  A    between atoms: C_27  and  O_30 
ROOT
HETATM    1  C   UNL     1       1.126  -0.799   0.235  1.00  0.00     0.185 A 
HETATM    2  C   UNL     1      -0.070  -1.183  -0.378  1.00  0.00     0.085 A 
HETATM    3  N   UNL     1       1.311   0.450   0.746  1.00  0.00    -0.236 NA
HETATM    4  C   UNL     1      -1.063  -0.203  -0.534  1.00  0.00     0.023 A 
HETATM    5  C   UNL     1       0.319   1.353   0.608  1.00  0.00     0.119 A 
HETATM    6  C   UNL     1      -0.874   1.078  -0.028  1.00  0.00     0.020 A 
ENDROOT
BRANCH   2   7
HETATM    7  C   UNL     1      -0.282  -2.494  -1.020  1.00  0.00     0.256 C 
HETATM    8  N   UNL     1      -1.432  -3.216  -0.798  1.00  0.00    -0.352 N 
HETATM    9  H   UNL     1      -1.435  -4.092  -1.308  1.00  0.00     0.163 HD
HETATM   10  O   UNL     1       0.560  -2.936  -1.800  1.00  0.00    -0.267 OA
BRANCH   8  11
HETATM   11  C   UNL     1      -2.512  -3.002   0.156  1.00  0.00     0.161 C 
BRANCH  11  12
HETATM   12  C   UNL     1      -3.622  -4.017   0.003  1.00  0.00    -0.041 A 
HETATM   13  C   UNL     1      -3.368  -5.393   0.044  1.00  0.00     0.009 A 
HETATM   14  C   UNL     1      -4.402  -6.320  -0.148  1.00  0.00     0.011 A 
HETATM   15  C   UNL     1      -5.727  -5.905  -0.366  1.00  0.00    -0.025 A 
HETATM   16  C   UNL     1      -5.984  -4.526  -0.340  1.00  0.00     0.011 A 
HETATM   17  C   UNL     1      -4.949  -3.597  -0.165  1.00  0.00     0.009 A 
BRANCH  15  18
HETATM   18  C   UNL     1      -6.832  -6.925  -0.646  1.00  0.00     0.077 C 
HETATM   19  C   UNL     1      -6.537  -7.717  -1.929  1.00  0.00     0.051 C 
HETATM   20  C   UNL     1      -7.031  -7.885   0.531  1.00  0.00     0.051 C 
BRANCH  18  21
HETATM   21  O   UNL     1      -8.092  -6.268  -0.839  1.00  0.00    -0.386 OA
HETATM   22  H   UNL     1      -8.059  -5.832  -1.707  1.00  0.00     0.211 HD
ENDBRANCH  18  21
ENDBRANCH  15  18
ENDBRANCH  11  12
ENDBRANCH   8  11
ENDBRANCH   2   7
BRANCH   1  23
HETATM   23  O   UNL     1       2.298  -1.513   0.242  1.00  0.00    -0.291 OA
BRANCH  23  24
HETATM   24  C   UNL     1       2.320  -2.841   0.604  1.00  0.00     0.080 A 
HETATM   25  C   UNL     1       3.192  -3.628  -0.177  1.00  0.00     0.073 A 
HETATM   26  C   UNL     1       3.230  -4.984   0.178  1.00  0.00     0.120 A 
HETATM   27  C   UNL     1       2.454  -5.518   1.289  1.00  0.00     0.117 A 
HETATM   28  N   UNL     1       3.924  -5.988  -0.370  1.00  0.00    -0.103 NA
HETATM   29  C   UNL     1       1.623  -4.705   2.087  1.00  0.00     0.039 A 
HETATM   30  N   UNL     1       2.691  -6.832   1.374  1.00  0.00    -0.103 NA
HETATM   31  C   UNL     1       1.591  -3.345   1.714  1.00  0.00     0.040 A 
HETATM   32  O   UNL     1       3.588  -7.118   0.356  1.00  0.00    -0.106 OA
ENDBRANCH  23  24
ENDBRANCH   1  23
TORSDOF 7
