REMARK  4 active torsions:
REMARK  status: ('A' for Active; 'I' for Inactive)
REMARK    1  A    between atoms: C_1  and  O_3 
REMARK    2  A    between atoms: C_2  and  C_6 
REMARK    3  A    between atoms: O_3  and  C_7 
REMARK    4  A    between atoms: C_6  and  N_10 
ROOT
HETATM    1  C   UNL     1      -1.290   0.122   0.327  1.00  0.00     0.084 A 
HETATM    2  C   UNL     1      -0.739  -1.082  -0.160  1.00  0.00     0.006 A 
HETATM    3  C   UNL     1      -0.440   1.164   0.736  1.00  0.00     0.041 A 
HETATM    4  C   UNL     1       0.660  -1.147  -0.335  1.00  0.00     0.054 A 
HETATM    5  C   UNL     1       0.937   1.082   0.543  1.00  0.00     0.045 A 
HETATM    6  C   UNL     1       1.476  -0.070  -0.005  1.00  0.00     0.117 A 
HETATM    7  F   UNL     1       2.800  -0.171  -0.167  1.00  0.00    -0.206 F 
ENDROOT
BRANCH   1   8
HETATM    8  O   UNL     1      -2.642   0.193   0.560  1.00  0.00    -0.310 OA
BRANCH   8   9
HETATM    9  C   UNL     1      -3.429   1.194   0.028  1.00  0.00     0.077 A 
HETATM   10  C   UNL     1      -4.801   0.914   0.074  1.00  0.00     0.062 A 
HETATM   11  C   UNL     1      -5.747   1.860  -0.337  1.00  0.00     0.058 A 
HETATM   12  C   UNL     1      -5.324   3.113  -0.786  1.00  0.00     0.056 A 
HETATM   13 CL   UNL     1      -7.416   1.421  -0.259  1.00  0.00    -0.082 Cl
HETATM   14  C   UNL     1      -3.958   3.388  -0.866  1.00  0.00     0.028 A 
HETATM   15 CL   UNL     1      -6.426   4.360  -1.247  1.00  0.00    -0.083 Cl
HETATM   16  C   UNL     1      -3.014   2.423  -0.486  1.00  0.00     0.039 A 
ENDBRANCH   8   9
ENDBRANCH   1   8
BRANCH   2  17
HETATM   17  C   UNL     1      -1.488  -2.392  -0.349  1.00  0.00     0.310 C 
BRANCH  17  18
HETATM   18  N   UNL     1      -2.921  -2.299  -0.607  1.00  0.00     0.083 N 
HETATM   19  C   UNL     1      -3.519  -3.626  -0.682  1.00  0.00     0.307 C 
HETATM   20  H   UNL     1      -3.074  -1.797  -1.480  1.00  0.00     0.315 HD
ENDBRANCH  17  18
ENDBRANCH   2  17
TORSDOF 4
