REMARK  9 active torsions:
REMARK  status: ('A' for Active; 'I' for Inactive)
REMARK    1  A    between atoms: C_7  and  O_10 
REMARK    2  A    between atoms: O_10  and  C_11 
REMARK    3  A    between atoms: C_12  and  C_14 
REMARK       I    between atoms: C_14  and  N_17 
REMARK    4  A    between atoms: N_17  and  C_20 
REMARK    5  A    between atoms: C_20  and  C_21 
REMARK    6  A    between atoms: C_27  and  O_28 
REMARK    7  A    between atoms: O_28  and  C_29 
REMARK    8  A    between atoms: C_29  and  C_30 
REMARK    9  A    between atoms: C_30  and  O_32 
ROOT
HETATM    1  C   UNL     1       3.722   1.933  -1.390  1.00  0.00     0.256 C 
HETATM    2  N   UNL     1       3.447   3.276  -1.265  1.00  0.00    -0.352 N 
HETATM    3  O   UNL     1       3.133   1.275  -2.242  1.00  0.00    -0.267 OA
HETATM    4  H   UNL     1       2.698   3.551  -1.887  1.00  0.00     0.163 HD
ENDROOT
BRANCH   1   5
HETATM    5  C   UNL     1       4.727   1.290  -0.522  1.00  0.00     0.085 A 
HETATM    6  C   UNL     1       4.482   0.105   0.174  1.00  0.00     0.185 A 
HETATM    7  N   UNL     1       5.436  -0.505   0.931  1.00  0.00    -0.236 NA
HETATM    8  C   UNL     1       6.664   0.051   0.976  1.00  0.00     0.119 A 
HETATM    9  C   UNL     1       7.008   1.195   0.284  1.00  0.00     0.020 A 
HETATM   10  C   UNL     1       6.027   1.815  -0.482  1.00  0.00     0.023 A 
BRANCH   6  11
HETATM   11  O   UNL     1       3.383  -0.693  -0.005  1.00  0.00    -0.291 OA
BRANCH  11  12
HETATM   12  C   UNL     1       2.110  -0.262   0.268  1.00  0.00     0.080 A 
HETATM   13  C   UNL     1       1.112  -1.095  -0.259  1.00  0.00     0.077 A 
HETATM   14  C   UNL     1      -0.203  -0.745  -0.059  1.00  0.00     0.107 A 
HETATM   15  C   UNL     1      -0.546   0.387   0.638  1.00  0.00     0.105 A 
HETATM   16  O   UNL     1      -1.286  -1.435  -0.504  1.00  0.00    -0.323 OA
HETATM   17  C   UNL     1       0.409   1.214   1.193  1.00  0.00     0.042 A 
HETATM   18  O   UNL     1      -1.893   0.561   0.708  1.00  0.00    -0.323 OA
HETATM   19  C   UNL     1       1.759   0.873   1.020  1.00  0.00     0.040 A 
HETATM   20  C   UNL     1      -2.355  -0.597  -0.021  1.00  0.00     0.352 A 
ENDBRANCH  11  12
ENDBRANCH   6  11
ENDBRANCH   1   5
BRANCH   2  21
HETATM   21  C   UNL     1       3.923   4.226  -0.267  1.00  0.00     0.164 C 
BRANCH  21  22
HETATM   22  C   UNL     1       3.476   5.659  -0.441  1.00  0.00    -0.002 A 
HETATM   23  C   UNL     1       4.133   6.636   0.322  1.00  0.00     0.127 A 
HETATM   24  C   UNL     1       3.882   8.000   0.170  1.00  0.00     0.079 A 
HETATM   25  F   UNL     1       5.062   6.256   1.214  1.00  0.00    -0.205 F 
HETATM   26  C   UNL     1       2.962   8.424  -0.779  1.00  0.00     0.072 A 
HETATM   27  C   UNL     1       2.230   7.463  -1.482  1.00  0.00     0.037 A 
HETATM   28  C   UNL     1       2.477   6.094  -1.317  1.00  0.00     0.014 A 
BRANCH  26  29
HETATM   29  O   UNL     1       2.684   9.715  -1.124  1.00  0.00    -0.336 OA
BRANCH  29  30
HETATM   30  C   UNL     1       3.584  10.761  -0.751  1.00  0.00     0.222 C 
HETATM   31  C   UNL     1       2.813  12.056  -1.014  1.00  0.00     0.051 C 
BRANCH  30  32
HETATM   32  C   UNL     1       4.968  10.704  -1.455  1.00  0.00     0.170 C 
HETATM   33  O   UNL     1       5.753   9.778  -1.311  1.00  0.00    -0.648 OA
BRANCH  32  34
HETATM   34  O   UNL     1       5.311  11.756  -2.231  1.00  0.00    -0.774 OA
HETATM   35  H   UNL     1       4.655  12.462  -2.362  1.00  0.00     0.167 HD
ENDBRANCH  32  34
ENDBRANCH  30  32
ENDBRANCH  29  30
ENDBRANCH  26  29
ENDBRANCH  21  22
ENDBRANCH   2  21
TORSDOF 9
