REMARK  10 active torsions:
REMARK  status: ('A' for Active; 'I' for Inactive)
REMARK    1  A    between atoms: C_1  and  C_2 
REMARK    2  A    between atoms: C_1  and  N_35 
REMARK    3  A    between atoms: C_2  and  C_3 
REMARK    4  A    between atoms: C_3  and  C_4 
REMARK    5  A    between atoms: C_3  and  C_5 
REMARK    6  A    between atoms: C_5  and  N_8 
REMARK       I    between atoms: N_8  and  C_11 
REMARK    7  A    between atoms: C_11  and  C_15 
REMARK    8  A    between atoms: C_20  and  C_23 
REMARK    9  A    between atoms: C_21  and  C_24 
REMARK   10  A    between atoms: C_31  and  C_39 
ROOT
HETATM    1  C   UNL     1       0.523   1.815  -1.771  1.00  0.00     0.038 C 
ENDROOT
BRANCH   1   2
HETATM    2  C   UNL     1       0.468   0.452  -1.009  1.00  0.00     0.039 C 
BRANCH   2   3
HETATM    3  C   UNL     1       1.112   0.260   0.393  1.00  0.00     0.238 C 
BRANCH   3   4
HETATM    4  N   UNL     1       2.631   0.079   0.425  1.00  0.00    -0.067 N 
HETATM    5  C   UNL     1       3.337   1.432   0.431  1.00  0.00     0.238 C 
HETATM    6  C   UNL     1       4.821   1.239   0.159  1.00  0.00     0.038 C 
HETATM    7  C   UNL     1       5.254  -0.232   0.414  1.00  0.00    -0.032 C 
HETATM    8  C   UNL     1       4.622  -0.645   1.775  1.00  0.00     0.038 C 
HETATM    9  C   UNL     1       4.559  -1.073  -0.666  1.00  0.00     0.038 C 
HETATM   10  C   UNL     1       3.080  -0.610   1.736  1.00  0.00     0.238 C 
HETATM   11  C   UNL     1       3.069  -0.827  -0.708  1.00  0.00     0.238 C 
BRANCH   7  12
HETATM   12  C   UNL     1       6.827  -0.311   0.359  1.00  0.00    -0.006 C 
HETATM   13  C   UNL     1       7.430  -0.397  -1.067  1.00  0.00     0.005 C 
HETATM   14  C   UNL     1       7.474  -1.805  -1.679  1.00  0.00     0.000 C 
HETATM   15  C   UNL     1       7.981  -2.876  -0.720  1.00  0.00     0.000 C 
HETATM   16  C   UNL     1       7.362  -2.787   0.670  1.00  0.00     0.000 C 
HETATM   17  C   UNL     1       7.488  -1.383   1.240  1.00  0.00     0.005 C 
ENDBRANCH   7  12
ENDBRANCH   3   4
ENDBRANCH   2   3
ENDBRANCH   1   2
BRANCH   1  18
HETATM   18  C   UNL     1       0.222   3.004  -0.838  1.00  0.00    -0.051 A 
HETATM   19  C   UNL     1      -0.849   2.927   0.074  1.00  0.00     0.033 A 
HETATM   20  C   UNL     1      -1.093   3.941   1.012  1.00  0.00     0.056 A 
HETATM   21  C   UNL     1      -0.302   5.088   1.016  1.00  0.00     0.055 A 
HETATM   22 CL   UNL     1      -2.357   3.678   2.157  1.00  0.00    -0.083 Cl
HETATM   23  C   UNL     1       0.713   5.220   0.069  1.00  0.00     0.026 A 
HETATM   24 CL   UNL     1      -0.513   6.362   2.159  1.00  0.00    -0.083 Cl
HETATM   25  C   UNL     1       0.969   4.193  -0.849  1.00  0.00     0.009 A 
ENDBRANCH   1  18
BRANCH   1  26
HETATM   26  C   UNL     1       1.744   2.050  -2.726  1.00  0.00     0.135 C 
BRANCH  26  27
HETATM   27  N   UNL     1       2.254   0.980  -3.596  1.00  0.00    -0.352 N 
HETATM   28  C   UNL     1       3.596   1.133  -4.020  1.00  0.00     0.253 C 
HETATM   29  O   UNL     1       4.354   1.971  -3.532  1.00  0.00    -0.267 OA
HETATM   30  C   UNL     1       1.302   0.180  -4.359  1.00  0.00     0.152 C 
BRANCH  28  31
HETATM   31  C   UNL     1       4.158   0.251  -5.072  1.00  0.00     0.033 A 
HETATM   32  C   UNL     1       4.128  -1.137  -4.926  1.00  0.00     0.033 A 
HETATM   33  C   UNL     1       4.650  -1.968  -5.930  1.00  0.00     0.049 A 
HETATM   34  C   UNL     1       5.226  -1.382  -7.070  1.00  0.00     0.032 A 
HETATM   35  C   UNL     1       5.296   0.015  -7.214  1.00  0.00     0.049 A 
HETATM   36  C   UNL     1       4.769   0.827  -6.194  1.00  0.00     0.033 A 
BRANCH  33  37
HETATM   37  C   UNL     1       4.568  -3.473  -5.804  1.00  0.00     0.417 C 
HETATM   38  F   UNL     1       3.765  -4.023  -6.751  1.00  0.00    -0.166 F 
HETATM   39  F   UNL     1       5.778  -4.078  -5.917  1.00  0.00    -0.166 F 
HETATM   40  F   UNL     1       4.057  -3.869  -4.603  1.00  0.00    -0.166 F 
ENDBRANCH  33  37
BRANCH  35  41
HETATM   41  C   UNL     1       5.929   0.641  -8.440  1.00  0.00     0.417 C 
HETATM   42  F   UNL     1       5.136   1.596  -8.996  1.00  0.00    -0.166 F 
HETATM   43  F   UNL     1       7.114   1.243  -8.160  1.00  0.00    -0.166 F 
HETATM   44  F   UNL     1       6.184  -0.259  -9.429  1.00  0.00    -0.166 F 
ENDBRANCH  35  41
ENDBRANCH  28  31
ENDBRANCH  26  27
ENDBRANCH   1  26
TORSDOF 10
