REMARK  2 active torsions:
REMARK  status: ('A' for Active; 'I' for Inactive)
REMARK    1  A    between atoms: C_8  and  N_9 
REMARK       I    between atoms: N_9  and  C_10 
REMARK    2  A    between atoms: C_10  and  C_12 
ROOT
HETATM    1  N   UNL     1      -1.413  -0.447  -2.398  1.00  0.00    -0.349 N 
HETATM    2  C   UNL     1      -2.747  -0.616  -2.724  1.00  0.00     0.270 C 
HETATM    3  O   UNL     1      -3.574  -1.134  -1.985  1.00  0.00    -0.266 OA
HETATM    4  H   UNL     1      -0.778  -0.078  -3.095  1.00  0.00     0.163 HD
ENDROOT
BRANCH   2   5
HETATM    5  C   UNL     1      -3.138  -0.082  -4.059  1.00  0.00     0.124 A 
HETATM    6  N   UNL     1      -3.583  -0.994  -4.963  1.00  0.00    -0.253 NA
HETATM    7  C   UNL     1      -3.963  -0.561  -6.191  1.00  0.00     0.155 A 
HETATM    8  C   UNL     1      -3.869   0.792  -6.473  1.00  0.00     0.102 A 
HETATM    9  C   UNL     1      -3.405   1.732  -5.558  1.00  0.00     0.003 A 
HETATM   10  O   UNL     1      -4.204   1.399  -7.645  1.00  0.00    -0.320 OA
HETATM   11  C   UNL     1      -3.015   1.290  -4.287  1.00  0.00     0.051 A 
HETATM   12  C   UNL     1      -3.471   2.983  -6.226  1.00  0.00     0.039 A 
HETATM   13  C   UNL     1      -3.962   2.727  -7.487  1.00  0.00     0.143 A 
ENDBRANCH   2   5
BRANCH   1  14
HETATM   14  C   UNL     1      -0.885  -0.862  -1.103  1.00  0.00     0.117 C 
HETATM   15  C   UNL     1       0.667  -0.916  -1.089  1.00  0.00     0.297 C 
HETATM   16  N   UNL     1       1.257  -0.022  -0.061  1.00  0.00     0.090 N 
HETATM   17  C   UNL     1       0.795   1.360  -0.313  1.00  0.00     0.273 C 
HETATM   18  C   UNL     1       0.771  -0.449   1.270  1.00  0.00     0.273 C 
HETATM   19  C   UNL     1      -0.733   1.483  -0.210  1.00  0.00     0.037 C 
HETATM   20  C   UNL     1      -1.344   0.091   0.028  1.00  0.00     0.013 C 
HETATM   21  C   UNL     1      -0.764  -0.442   1.349  1.00  0.00     0.037 C 
ENDBRANCH   1  14
TORSDOF 2
