REMARK  4 active torsions:
REMARK  status: ('A' for Active; 'I' for Inactive)
REMARK    1  A    between atoms: N_1  and  C_2 
REMARK    2  A    between atoms: C_3  and  C_7 
REMARK    3  A    between atoms: C_4  and  C_10 
REMARK    4  A    between atoms: C_10  and  O_17 
ROOT
HETATM    1  C   UNL     1      -0.611  -2.761   0.564  1.00  0.00     0.095 C 
HETATM    2  C   UNL     1      -1.783  -3.518   0.308  1.00  0.00     0.091 C 
HETATM    3  C   UNL     1       0.474  -3.513   1.075  1.00  0.00     0.085 C 
HETATM    4  C   UNL     1      -1.702  -4.929   0.164  1.00  0.00     0.066 C 
HETATM    5  N   UNL     1      -3.076  -3.002   0.303  1.00  0.00    -0.315 N 
HETATM    6  C   UNL     1       0.565  -4.905   0.872  1.00  0.00     0.060 C 
HETATM    7 CL   UNL     1       1.534  -2.791   2.264  1.00  0.00    -0.080 Cl
HETATM    8  C   UNL     1      -0.503  -5.602   0.331  1.00  0.00     0.057 C 
HETATM    9  N   UNL     1      -2.838  -5.701  -0.120  1.00  0.00    -0.317 N 
HETATM   10  C   UNL     1      -4.247  -3.717   0.219  1.00  0.00     0.314 C 
HETATM   11 CL   UNL     1       1.979  -5.815   1.270  1.00  0.00    -0.082 Cl
HETATM   12  C   UNL     1      -4.117  -5.206  -0.107  1.00  0.00     0.314 C 
HETATM   13  O   UNL     1      -5.337  -3.192   0.404  1.00  0.00    -0.262 OA
HETATM   14  O   UNL     1      -5.095  -5.908  -0.323  1.00  0.00    -0.262 OA
HETATM   15  H   UNL     1      -3.260  -2.025   0.413  1.00  0.00     0.169 HD
HETATM   16  H   UNL     1      -2.774  -6.700  -0.274  1.00  0.00     0.169 HD
ENDROOT
BRANCH   1  17
HETATM   17  N   UNL     1      -0.360  -1.361   0.179  1.00  0.00    -0.274 N 
HETATM   18  C   UNL     1       0.906  -0.836  -0.249  1.00  0.00     0.170 A 
HETATM   19  N   UNL     1       0.791   0.451  -0.497  1.00  0.00    -0.129 NA
HETATM   20  N   UNL     1      -0.483   0.813  -0.348  1.00  0.00    -0.132 NA
HETATM   21  C   UNL     1      -1.193  -0.228   0.035  1.00  0.00     0.159 A 
BRANCH  18  22
HETATM   22  C   UNL     1       2.230  -1.451  -0.436  1.00  0.00     0.030 A 
HETATM   23  C   UNL     1       3.339  -0.751   0.072  1.00  0.00     0.140 A 
HETATM   24  N   UNL     1       4.631  -1.224  -0.050  1.00  0.00    -0.210 N 
HETATM   25  C   UNL     1       4.829  -2.425  -0.702  1.00  0.00     0.125 A 
HETATM   26  O   UNL     1       5.611  -0.579   0.428  1.00  0.00    -0.082 OA
HETATM   27  C   UNL     1       3.762  -3.132  -1.256  1.00  0.00     0.021 A 
HETATM   28  C   UNL     1       2.464  -2.630  -1.145  1.00  0.00     0.018 A 
ENDBRANCH  18  22
BRANCH  21  29
HETATM   29  C   UNL     1      -2.624   0.016   0.340  1.00  0.00     0.247 C 
BRANCH  29  30
HETATM   30  O   UNL     1      -3.383  -0.684  -0.638  1.00  0.00    -0.388 OA
HETATM   31  C   UNL     1      -4.738  -0.248  -0.706  1.00  0.00     0.202 C 
ENDBRANCH  29  30
ENDBRANCH  21  29
ENDBRANCH   1  17
TORSDOF 4
