REMARK  10 active torsions:
REMARK  status: ('A' for Active; 'I' for Inactive)
REMARK    1  A    between atoms: C_3  and  C_8 
REMARK    2  A    between atoms: N_7  and  C_12 
REMARK    3  A    between atoms: C_9  and  C_14 
REMARK    4  A    between atoms: C_12  and  C_15 
REMARK    5  A    between atoms: C_16  and  O_21 
REMARK    6  A    between atoms: O_21  and  C_26 
REMARK    7  A    between atoms: C_22  and  S_27 
REMARK    8  A    between atoms: C_26  and  C_29 
REMARK    9  A    between atoms: S_27  and  N_30 
REMARK   10  A    between atoms: N_38  and  C_39 
ROOT
HETATM    1  C   UNL     1      -3.151  -1.351   0.174  1.00  0.00     0.045 A 
HETATM    2  C   UNL     1      -4.285  -0.539  -0.068  1.00  0.00     0.082 A 
HETATM    3  C   UNL     1      -3.272  -2.761   0.093  1.00  0.00     0.042 A 
HETATM    4  C   UNL     1      -5.488  -1.165  -0.427  1.00  0.00     0.039 A 
HETATM    5  C   UNL     1      -4.487  -3.354  -0.263  1.00  0.00     0.075 A 
HETATM    6  C   UNL     1      -5.577  -2.545  -0.577  1.00  0.00     0.027 A 
ENDROOT
BRANCH   1   7
HETATM    7  C   UNL     1      -1.766  -0.852   0.422  1.00  0.00     0.144 C 
HETATM    8  N   UNL     1      -0.734  -1.468  -0.098  1.00  0.00    -0.226 NA
HETATM    9  C   UNL     1       0.470  -0.764   0.038  1.00  0.00     0.119 C 
HETATM   10  C   UNL     1       0.517   0.546   0.489  1.00  0.00     0.175 C 
HETATM   11  C   UNL     1       1.781  -1.174  -0.118  1.00  0.00     0.062 C 
HETATM   12  N   UNL     1       1.733   1.054   0.380  1.00  0.00    -0.164 NA
HETATM   13  C   UNL     1      -0.627   1.167   1.095  1.00  0.00     0.280 C 
HETATM   14  N   UNL     1       2.520   0.006   0.039  1.00  0.00    -0.265 N 
HETATM   15  N   UNL     1      -1.681   0.286   1.199  1.00  0.00    -0.305 N 
HETATM   16  O   UNL     1      -0.708   2.336   1.464  1.00  0.00    -0.265 OA
HETATM   17  H   UNL     1      -2.507   0.656   1.643  1.00  0.00     0.170 HD
BRANCH  14  18
HETATM   18  C   UNL     1       3.977   0.202   0.105  1.00  0.00     0.210 C 
BRANCH  18  19
HETATM   19  C   UNL     1       4.495   1.633   0.025  1.00  0.00     0.054 A 
HETATM   20  C   UNL     1       3.957   2.691   0.766  1.00  0.00     0.029 A 
HETATM   21  C   UNL     1       4.463   3.979   0.618  1.00  0.00     0.003 A 
HETATM   22  C   UNL     1       5.561   4.181  -0.199  1.00  0.00     0.019 A 
HETATM   23  C   UNL     1       6.102   3.079  -0.838  1.00  0.00     0.117 A 
HETATM   24  N   UNL     1       5.598   1.824  -0.751  1.00  0.00    -0.264 NA
ENDBRANCH  18  19
ENDBRANCH  14  18
BRANCH  11  25
HETATM   25  C   UNL     1       2.252  -2.587  -0.303  1.00  0.00     0.057 C 
HETATM   26  C   UNL     1       3.733  -2.885  -0.188  1.00  0.00     0.011 C 
ENDBRANCH  11  25
ENDBRANCH   1   7
BRANCH   2  27
HETATM   27  O   UNL     1      -4.485   0.811   0.034  1.00  0.00    -0.350 OA
BRANCH  27  28
HETATM   28  C   UNL     1      -3.524   1.768  -0.396  1.00  0.00     0.175 C 
BRANCH  28  29
HETATM   29  C   UNL     1      -4.208   3.011  -0.960  1.00  0.00     0.022 C 
HETATM   30  C   UNL     1      -3.229   4.180  -1.004  1.00  0.00     0.007 C 
ENDBRANCH  28  29
ENDBRANCH  27  28
ENDBRANCH   2  27
BRANCH   5  31
HETATM   31  S   UNL     1      -4.595  -5.104  -0.586  1.00  0.00     0.243 S 
HETATM   32  O   UNL     1      -5.187  -5.225  -1.900  1.00  0.00    -0.206 OA
HETATM   33  O   UNL     1      -3.295  -5.683  -0.317  1.00  0.00    -0.206 OA
BRANCH  31  34
HETATM   34  N   UNL     1      -5.668  -5.777   0.571  1.00  0.00    -0.203 NA
HETATM   35  C   UNL     1      -5.913  -7.252   0.338  1.00  0.00     0.138 C 
HETATM   36  C   UNL     1      -6.982  -7.506  -0.760  1.00  0.00     0.287 C 
HETATM   37  N   UNL     1      -8.255  -6.758  -0.623  1.00  0.00     0.090 N 
HETATM   38  C   UNL     1      -7.978  -5.343  -0.315  1.00  0.00     0.287 C 
HETATM   39  C   UNL     1      -6.982  -5.130   0.838  1.00  0.00     0.138 C 
BRANCH  37  40
HETATM   40  C   UNL     1      -9.191  -7.356   0.331  1.00  0.00     0.268 C 
HETATM   41  C   UNL     1      -9.899  -8.562  -0.277  1.00  0.00     0.037 C 
ENDBRANCH  37  40
ENDBRANCH  31  34
ENDBRANCH   5  31
TORSDOF 10
