REMARK  14 active torsions:
REMARK  status: ('A' for Active; 'I' for Inactive)
REMARK    1  A    between atoms: C_1  and  C_2 
REMARK    2  A    between atoms: C_1  and  C_3 
REMARK    3  A    between atoms: C_2  and  C_6 
REMARK       I    between atoms: C_3  and  N_7 
REMARK    4  A    between atoms: C_6  and  C_12 
REMARK    5  A    between atoms: C_6  and  C_11 
REMARK    6  A    between atoms: N_7  and  C_13 
REMARK    7  A    between atoms: C_11  and  O_14 
REMARK    8  A    between atoms: C_12  and  O_16 
REMARK    9  A    between atoms: O_14  and  C_19 
REMARK   10  A    between atoms: O_16  and  C_20 
REMARK   11  A    between atoms: C_20  and  C_25 
REMARK   12  A    between atoms: C_25  and  O_29 
REMARK   13  A    between atoms: C_26  and  C_30 
REMARK   14  A    between atoms: C_30  and  O_34 
ROOT
HETATM    1  C   UNL     1       6.864   1.579   2.833  1.00  0.00     0.035 C 
ENDROOT
BRANCH   1   2
HETATM    2  C   UNL     1       5.449   2.186   2.571  1.00  0.00     0.036 C 
HETATM    3  C   UNL     1       5.218   3.501   3.357  1.00  0.00     0.018 C 
HETATM    4  C   UNL     1       5.564   4.676   2.424  1.00  0.00     0.001 C 
HETATM    5  C   UNL     1       6.122   4.061   1.155  1.00  0.00     0.001 C 
HETATM    6  C   UNL     1       5.421   2.723   1.131  1.00  0.00     0.018 C 
BRANCH   2   7
HETATM    7  C   UNL     1       4.336   1.124   2.795  1.00  0.00     0.206 C 
HETATM    8  N   UNL     1       3.110   1.252   2.166  1.00  0.00    -0.258 NA
HETATM    9  H   UNL     1       2.464   0.833   2.829  1.00  0.00     0.130 HD
HETATM   10  O   UNL     1       4.456   0.196   3.595  1.00  0.00    -0.279 OA
BRANCH   8  11
HETATM   11  C   UNL     1       2.831   0.586   0.861  1.00  0.00     0.063 C 
HETATM   12  C   UNL     1       2.482   1.582  -0.266  1.00  0.00     0.021 C 
HETATM   13  C   UNL     1       2.474   0.995  -1.679  1.00  0.00     0.017 C 
HETATM   14  C   UNL     1       3.691   0.101  -1.966  1.00  0.00     0.084 C 
HETATM   15  C   UNL     1       3.691  -1.026  -0.933  1.00  0.00     0.017 C 
HETATM   16  C   UNL     1       3.856  -0.500   0.488  1.00  0.00     0.021 C 
BRANCH  14  17
HETATM   17  C   UNL     1       4.974   0.934  -2.071  1.00  0.00     0.143 C 
HETATM   18  O   UNL     1       4.997   2.079  -2.491  1.00  0.00    -0.650 OA
BRANCH  17  19
HETATM   19  O   UNL     1       6.117   0.306  -1.725  1.00  0.00    -0.776 OA
HETATM   20  H   UNL     1       6.046  -0.612  -1.413  1.00  0.00     0.167 HD
ENDBRANCH  17  19
ENDBRANCH  14  17
ENDBRANCH   8  11
ENDBRANCH   2   7
ENDBRANCH   1   2
BRANCH   1  21
HETATM   21  C   UNL     1       7.271   0.963   4.194  1.00  0.00     0.111 C 
BRANCH  21  22
HETATM   22  C   UNL     1       8.797   0.785   4.222  1.00  0.00     0.182 C 
BRANCH  22  23
HETATM   23  O   UNL     1       9.335  -0.007   3.157  1.00  0.00    -0.388 OA
BRANCH  23  24
HETATM   24  C   UNL     1      10.769   0.071   3.224  1.00  0.00     0.193 C 
BRANCH  24  25
HETATM   25  C   UNL     1      11.436  -0.926   2.290  1.00  0.00     0.193 C 
BRANCH  25  26
HETATM   26  O   UNL     1      12.850  -0.807   2.458  1.00  0.00    -0.394 OA
HETATM   27  C   UNL     1      13.561  -1.745   1.664  1.00  0.00     0.201 C 
ENDBRANCH  25  26
ENDBRANCH  24  25
ENDBRANCH  23  24
ENDBRANCH  22  23
ENDBRANCH  21  22
BRANCH  21  28
HETATM   28  C   UNL     1       6.786   1.708   5.449  1.00  0.00     0.270 C 
HETATM   29  O   UNL     1       5.677   1.545   5.949  1.00  0.00    -0.264 OA
BRANCH  28  30
HETATM   30  O   UNL     1       7.628   2.722   5.899  1.00  0.00    -0.279 OA
BRANCH  30  31
HETATM   31  C   UNL     1       8.641   2.292   6.778  1.00  0.00     0.079 C 
HETATM   32  C   UNL     1       8.413   1.330   7.763  1.00  0.00     0.045 C 
HETATM   33  C   UNL     1       9.521   0.769   8.378  1.00  0.00    -0.049 C 
HETATM   34  C   UNL     1      10.814   1.167   8.034  1.00  0.00    -0.052 C 
HETATM   35  C   UNL     1       9.530  -0.333   9.385  1.00  0.00     0.039 C 
HETATM   36  C   UNL     1      11.035   2.192   7.127  1.00  0.00     0.010 C 
HETATM   37  C   UNL     1      11.847   0.312   8.691  1.00  0.00     0.039 C 
HETATM   38  C   UNL     1       9.931   2.781   6.513  1.00  0.00     0.038 C 
HETATM   39  C   UNL     1      11.026  -0.559   9.653  1.00  0.00     0.009 C 
ENDBRANCH  30  31
ENDBRANCH  28  30
ENDBRANCH  21  28
ENDBRANCH   1  21
TORSDOF 14
