REMARK  6 active torsions:
REMARK  status: ('A' for Active; 'I' for Inactive)
REMARK    1  A    between atoms: C_10  and  O_14 
REMARK    2  A    between atoms: C_12  and  C_15 
REMARK    3  A    between atoms: C_15  and  N_17 
REMARK    4  A    between atoms: N_17  and  C_18 
REMARK    5  A    between atoms: C_19  and  C_21 
REMARK    6  A    between atoms: C_26  and  C_29 
ROOT
HETATM    1  N   UNL     1      -5.006   0.628   0.585  1.00  0.00     0.094 N 
HETATM    2  H   UNL     1      -4.741   0.966   1.506  1.00  0.00     0.316 HD
ENDROOT
BRANCH   1   3
HETATM    3  C   UNL     1      -3.992   0.995  -0.378  1.00  0.00     0.311 C 
BRANCH   3   4
HETATM    4  C   UNL     1      -2.652   0.311  -0.149  1.00  0.00     0.005 A 
HETATM    5  C   UNL     1      -1.506   1.139  -0.322  1.00  0.00     0.042 A 
HETATM    6  C   UNL     1      -0.186   0.664  -0.203  1.00  0.00     0.044 A 
HETATM    7  C   UNL     1       0.012  -0.692   0.094  1.00  0.00    -0.024 A 
HETATM    8  N   UNL     1       0.951   1.527  -0.358  1.00  0.00    -0.322 N 
HETATM    9  C   UNL     1       1.383  -1.273   0.267  1.00  0.00     0.035 A 
HETATM   10  C   UNL     1      -1.117  -1.511   0.250  1.00  0.00     0.047 A 
HETATM   11  C   UNL     1       2.504  -0.278   0.303  1.00  0.00     0.087 A 
HETATM   12  C   UNL     1       2.397  -1.252  -0.848  1.00  0.00     0.025 A 
HETATM   13  C   UNL     1       2.249   1.155   0.018  1.00  0.00     0.229 C 
HETATM   14  O   UNL     1       3.195   1.932   0.074  1.00  0.00    -0.273 OA
HETATM   15  C   UNL     1      -2.436  -1.045   0.129  1.00  0.00     0.076 A 
HETATM   16  C   UNL     1       0.817   2.862  -0.910  1.00  0.00     0.159 C 
BRANCH  15  17
HETATM   17  O   UNL     1      -3.315  -2.053   0.400  1.00  0.00    -0.355 OA
HETATM   18  C   UNL     1      -4.583  -2.107  -0.224  1.00  0.00     0.210 C 
ENDBRANCH  15  17
ENDBRANCH   3   4
ENDBRANCH   1   3
BRANCH   1  19
HETATM   19  C   UNL     1      -6.418   0.911   0.254  1.00  0.00     0.258 C 
HETATM   20  C   UNL     1      -6.850   2.029  -0.786  1.00  0.00     0.286 C 
HETATM   21  N   UNL     1      -6.527   3.380  -0.270  1.00  0.00     0.099 N 
HETATM   22  C   UNL     1      -7.144   3.679   1.034  1.00  0.00     0.221 C 
HETATM   23  H   UNL     1      -6.865   4.067  -0.940  1.00  0.00     0.317 HD
HETATM   24  C   UNL     1      -6.785   2.614   2.080  1.00  0.00     0.038 C 
HETATM   25  C   UNL     1      -7.125   1.205   1.595  1.00  0.00     0.040 C 
BRANCH  20  26
HETATM   26  C   UNL     1      -6.412   1.797  -2.244  1.00  0.00    -0.023 A 
HETATM   27  C   UNL     1      -5.922   2.827  -3.068  1.00  0.00     0.009 A 
HETATM   28  C   UNL     1      -5.555   2.586  -4.398  1.00  0.00     0.001 A 
HETATM   29  C   UNL     1      -5.662   1.307  -4.934  1.00  0.00     0.000 A 
HETATM   30  C   UNL     1      -6.156   0.274  -4.148  1.00  0.00     0.001 A 
HETATM   31  C   UNL     1      -6.546   0.520  -2.827  1.00  0.00     0.009 A 
ENDBRANCH  20  26
BRANCH  22  32
HETATM   32  C   UNL     1      -8.674   3.899   0.982  1.00  0.00     0.031 C 
HETATM   33  C   UNL     1      -9.110   5.035   0.070  1.00  0.00     0.007 C 
ENDBRANCH  22  32
ENDBRANCH   1  19
TORSDOF 6
