REMARK  8 active torsions:
REMARK  status: ('A' for Active; 'I' for Inactive)
REMARK    1  A    between atoms: C_3  and  O_8 
REMARK    2  A    between atoms: C_7  and  C_12 
REMARK    3  A    between atoms: C_9  and  O_13 
REMARK    4  A    between atoms: C_12  and  C_14 
REMARK    5  A    between atoms: O_13  and  C_15 
REMARK    6  A    between atoms: C_15  and  C_18 
REMARK    7  A    between atoms: C_19  and  C_24 
REMARK    8  A    between atoms: C_24  and  O_27 
ROOT
HETATM    1  C   UNL     1       0.068   0.710   0.028  1.00  0.00     0.007 A 
HETATM    2  C   UNL     1       0.124  -0.681  -0.037  1.00  0.00     0.077 A 
HETATM    3  C   UNL     1      -1.273   1.412   0.086  1.00  0.00     0.160 C 
HETATM    4  C   UNL     1       1.284   1.418   0.067  1.00  0.00     0.049 A 
HETATM    5  O   UNL     1      -0.969  -1.483  -0.082  1.00  0.00    -0.350 OA
HETATM    6  C   UNL     1       1.334  -1.361  -0.091  1.00  0.00     0.040 A 
HETATM    7  C   UNL     1      -2.445   0.476  -0.303  1.00  0.00     0.048 C 
HETATM    8  C   UNL     1       2.514   0.740   0.025  1.00  0.00     0.070 A 
HETATM    9  C   UNL     1      -2.169  -0.871   0.371  1.00  0.00     0.183 C 
HETATM   10  C   UNL     1       2.526  -0.655  -0.055  1.00  0.00     0.039 A 
ENDROOT
BRANCH   8  11
HETATM   11  O   UNL     1       3.643   1.524   0.069  1.00  0.00    -0.345 OA
BRANCH  11  12
HETATM   12  C   UNL     1       4.877   0.796   0.016  1.00  0.00     0.242 C 
BRANCH  12  13
HETATM   13  C   UNL     1       6.047   1.732   0.067  1.00  0.00     0.100 A 
HETATM   14  S   UNL     1       7.622   1.028   0.121  1.00  0.00    -0.070 SA
HETATM   15  C   UNL     1       8.326   2.593   0.143  1.00  0.00     0.035 A 
HETATM   16  C   UNL     1       9.686   2.943   0.188  1.00  0.00     0.024 A 
HETATM   17  C   UNL     1       7.310   3.551   0.106  1.00  0.00     0.077 A 
HETATM   18  C   UNL     1      10.011   4.301   0.198  1.00  0.00     0.044 A 
HETATM   19  C   UNL     1       9.009   5.262   0.162  1.00  0.00     0.118 A 
HETATM   20  C   UNL     1       7.662   4.913   0.117  1.00  0.00     0.075 A 
HETATM   21  F   UNL     1       9.349   6.558   0.173  1.00  0.00    -0.206 F 
HETATM   22  N   UNL     1       6.020   3.047   0.062  1.00  0.00    -0.242 NA
ENDBRANCH  12  13
ENDBRANCH  11  12
ENDBRANCH   8  11
BRANCH   3  23
HETATM   23  O   UNL     1      -1.488   1.920   1.404  1.00  0.00    -0.390 OA
HETATM   24  H   UNL     1      -0.807   1.546   1.990  1.00  0.00     0.210 HD
ENDBRANCH   3  23
BRANCH   7  25
HETATM   25  C   UNL     1      -3.836   1.067   0.080  1.00  0.00     0.048 C 
BRANCH  25  26
HETATM   26  C   UNL     1      -5.035   0.380  -0.559  1.00  0.00    -0.057 C 
HETATM   27  C   UNL     1      -5.296  -0.979  -0.342  1.00  0.00     0.025 C 
HETATM   28  C   UNL     1      -6.248  -1.690  -1.085  1.00  0.00     0.038 C 
HETATM   29  C   UNL     1      -7.117  -0.976  -1.909  1.00  0.00     0.018 C 
HETATM   30  C   UNL     1      -6.974   0.411  -2.024  1.00  0.00     0.002 C 
HETATM   31  C   UNL     1      -5.923   1.078  -1.382  1.00  0.00     0.007 C 
BRANCH  28  32
HETATM   32  C   UNL     1      -6.206  -3.180  -0.953  1.00  0.00     0.176 C 
HETATM   33  O   UNL     1      -5.488  -3.741  -0.143  1.00  0.00    -0.646 OA
BRANCH  32  34
HETATM   34  O   UNL     1      -6.961  -3.874  -1.828  1.00  0.00    -0.773 OA
HETATM   35  H   UNL     1      -7.397  -3.365  -2.530  1.00  0.00     0.167 HD
ENDBRANCH  32  34
ENDBRANCH  28  32
ENDBRANCH  25  26
ENDBRANCH   7  25
TORSDOF 8
