REMARK  3 active torsions:
REMARK  status: ('A' for Active; 'I' for Inactive)
REMARK    1  A    between atoms: C_1  and  C_3 
REMARK    2  A    between atoms: C_2  and  C_5 
REMARK    3  A    between atoms: C_18  and  C_23 
ROOT
HETATM    1  C   UNL     1       1.150  -0.682   0.179  1.00  0.00     0.118 A 
HETATM    2  C   UNL     1       1.047   0.678  -0.153  1.00  0.00     0.106 A 
HETATM    3  O   UNL     1      -0.170  -1.123   0.237  1.00  0.00    -0.301 OA
HETATM    4  N   UNL     1      -0.273   1.070  -0.236  1.00  0.00    -0.233 NA
HETATM    5  C   UNL     1      -0.935  -0.035  -0.014  1.00  0.00     0.259 A 
ENDROOT
BRANCH   1   6
HETATM    6  C   UNL     1       2.265  -1.557   0.414  1.00  0.00     0.016 C 
HETATM    7  C   UNL     1       2.107  -2.873   0.132  1.00  0.00     0.114 C 
HETATM    8  N   UNL     1       3.214  -3.724   0.134  1.00  0.00    -0.290 N 
HETATM    9  C   UNL     1       4.506  -3.283   0.381  1.00  0.00     0.157 A 
HETATM   10  C   UNL     1       3.351  -5.078  -0.114  1.00  0.00     0.138 A 
HETATM   11  C   UNL     1       4.666  -1.950   0.833  1.00  0.00     0.054 C 
HETATM   12  N   UNL     1       5.359  -4.250   0.152  1.00  0.00    -0.130 NA
HETATM   13  C   UNL     1       3.593  -1.142   0.891  1.00  0.00     0.020 C 
HETATM   14  N   UNL     1       4.638  -5.371  -0.174  1.00  0.00    -0.134 NA
BRANCH  10  15
HETATM   15  C   UNL     1       2.225  -6.069  -0.176  1.00  0.00     0.050 C 
HETATM   16  C   UNL     1       1.454  -6.001  -1.492  1.00  0.00     0.018 C 
HETATM   17  C   UNL     1       2.755  -7.494   0.033  1.00  0.00     0.018 C 
ENDBRANCH  10  15
ENDBRANCH   1   6
BRANCH   2  18
HETATM   18  C   UNL     1       2.116   1.646  -0.340  1.00  0.00     0.037 A 
HETATM   19  C   UNL     1       3.286   1.364  -1.056  1.00  0.00     0.129 A 
HETATM   20  C   UNL     1       4.340   2.278  -1.114  1.00  0.00     0.046 A 
HETATM   21  F   UNL     1       3.434   0.195  -1.696  1.00  0.00    -0.205 F 
HETATM   22  C   UNL     1       4.209   3.522  -0.503  1.00  0.00     0.045 A 
HETATM   23  C   UNL     1       3.017   3.843   0.137  1.00  0.00     0.117 A 
HETATM   24  C   UNL     1       1.976   2.923   0.223  1.00  0.00     0.059 A 
HETATM   25  F   UNL     1       2.875   5.052   0.694  1.00  0.00    -0.206 F 
ENDBRANCH   2  18
TORSDOF 3
