REMARK  4 active torsions:
REMARK  status: ('A' for Active; 'I' for Inactive)
REMARK    1  A    between atoms: C_1  and  C_2 
REMARK    2  A    between atoms: C_1  and  C_5 
REMARK    3  A    between atoms: C_2  and  C_6 
REMARK    4  A    between atoms: C_5  and  N_9 
ROOT
HETATM    1  C   UNL     1       0.771   1.151  -0.232  1.00  0.00    -0.008 C 
HETATM    2  C   UNL     1       1.460  -0.218   0.036  1.00  0.00     0.011 C 
HETATM    3  C   UNL     1      -0.703   1.123   0.259  1.00  0.00     0.011 C 
HETATM    4  C   UNL     1       0.643  -1.425  -0.422  1.00  0.00     0.001 C 
HETATM    5  C   UNL     1      -1.489  -0.102  -0.210  1.00  0.00     0.001 C 
HETATM    6  C   UNL     1      -0.770  -1.396   0.148  1.00  0.00     0.000 C 
ENDROOT
BRANCH   1   7
HETATM    7  C   UNL     1       1.560   2.304   0.459  1.00  0.00     0.092 C 
BRANCH   7   8
HETATM    8  C   UNL     1       1.414   2.540   1.943  1.00  0.00     0.137 A 
HETATM    9  N   UNL     1       1.383   1.577   2.853  1.00  0.00    -0.287 N 
HETATM   10  C   UNL     1       1.290   2.172   4.052  1.00  0.00     0.390 A 
HETATM   11  H   UNL     1       1.359   0.580   2.753  1.00  0.00     0.172 HD
HETATM   12  O   UNL     1       1.202   1.597   5.125  1.00  0.00    -0.236 OA
HETATM   13  O   UNL     1       1.296   3.527   3.865  1.00  0.00    -0.154 OA
HETATM   14  N   UNL     1       1.381   3.728   2.452  1.00  0.00    -0.110 NA
ENDBRANCH   7   8
ENDBRANCH   1   7
BRANCH   1  15
HETATM   15  C   UNL     1       0.761   1.436  -1.776  1.00  0.00     0.276 C 
BRANCH  15  16
HETATM   16  N   UNL     1       2.093   1.512  -2.373  1.00  0.00     0.079 N 
HETATM   17  H   UNL     1       2.561   2.368  -2.077  1.00  0.00     0.312 HD
HETATM   18  H   UNL     1       2.003   1.589  -3.386  1.00  0.00     0.312 HD
ENDBRANCH  15  16
ENDBRANCH   1  15
TORSDOF 4
