REMARK  4 active torsions:
REMARK  status: ('A' for Active; 'I' for Inactive)
REMARK    1  A    between atoms: C_5  and  C_11 
REMARK    2  A    between atoms: C_13  and  N_18 
REMARK    3  A    between atoms: C_14  and  N_19 
REMARK       I    between atoms: N_19  and  C_22 
REMARK    4  A    between atoms: C_22  and  C_24 
ROOT
HETATM    1  C   UNL     1       0.313   0.134  -0.080  1.00  0.00     0.056 A 
HETATM    2  C   UNL     1      -0.009  -1.206  -0.193  1.00  0.00     0.022 A 
HETATM    3  N   UNL     1      -0.514   1.258  -0.108  1.00  0.00    -0.313 N 
HETATM    4  C   UNL     1       1.641   0.546   0.045  1.00  0.00    -0.027 A 
HETATM    5  C   UNL     1      -1.368  -1.645  -0.607  1.00  0.00     0.077 C 
HETATM    6  C   UNL     1       1.029  -2.143  -0.046  1.00  0.00     0.039 A 
HETATM    7  C   UNL     1      -1.878   1.306   0.071  1.00  0.00     0.269 C 
HETATM    8  C   UNL     1       0.309   2.456  -0.283  1.00  0.00     0.137 C 
HETATM    9  C   UNL     1       1.747   2.041   0.054  1.00  0.00     0.061 C 
HETATM   10  C   UNL     1       2.667  -0.377   0.174  1.00  0.00     0.032 A 
HETATM   11  N   UNL     1      -2.480  -1.094  -0.273  1.00  0.00    -0.253 NA
HETATM   12  C   UNL     1       2.353  -1.739   0.201  1.00  0.00     0.007 A 
HETATM   13  C   UNL     1      -2.568   0.038   0.635  1.00  0.00     0.302 C 
HETATM   14  O   UNL     1      -2.505   2.359  -0.088  1.00  0.00    -0.269 OA
ENDROOT
BRANCH  13  15
HETATM   15  N   UNL     1      -2.103  -0.300   1.969  1.00  0.00    -0.326 N 
HETATM   16  C   UNL     1      -2.501  -1.311   2.801  1.00  0.00     0.255 C 
HETATM   17  O   UNL     1      -1.886  -1.519   3.842  1.00  0.00    -0.268 OA
HETATM   18  H   UNL     1      -1.310   0.219   2.323  1.00  0.00     0.165 HD
BRANCH  16  19
HETATM   19  C   UNL     1      -3.615  -2.203   2.435  1.00  0.00     0.049 A 
HETATM   20  C   UNL     1      -4.864  -1.749   2.018  1.00  0.00     0.020 A 
HETATM   21  C   UNL     1      -5.836  -2.678   1.651  1.00  0.00     0.020 A 
HETATM   22  C   UNL     1      -5.529  -4.027   1.741  1.00  0.00     0.116 A 
HETATM   23  N   UNL     1      -4.344  -4.500   2.186  1.00  0.00    -0.272 NA
HETATM   24  C   UNL     1      -3.418  -3.574   2.540  1.00  0.00     0.133 A 
ENDBRANCH  16  19
ENDBRANCH  13  15
BRANCH   5  25
HETATM   25  C   UNL     1      -1.464  -2.823  -1.516  1.00  0.00    -0.007 A 
HETATM   26  C   UNL     1      -2.209  -3.935  -1.117  1.00  0.00     0.014 A 
HETATM   27  C   UNL     1      -2.267  -5.061  -1.938  1.00  0.00     0.001 A 
HETATM   28  C   UNL     1      -1.602  -5.063  -3.165  1.00  0.00     0.000 A 
HETATM   29  C   UNL     1      -0.882  -3.939  -3.576  1.00  0.00     0.001 A 
HETATM   30  C   UNL     1      -0.810  -2.815  -2.752  1.00  0.00     0.014 A 
ENDBRANCH   5  25
BRANCH  12  31
HETATM   31  N   UNL     1       3.379  -2.693   0.223  1.00  0.00    -0.303 NA
HETATM   32  H   UNL     1       3.080  -3.610   0.545  1.00  0.00     0.124 HD
HETATM   33  H   UNL     1       4.219  -2.383   0.703  1.00  0.00     0.124 HD
ENDBRANCH  12  31
TORSDOF 4
