REMARK  5 active torsions:
REMARK  status: ('A' for Active; 'I' for Inactive)
REMARK    1  A    between atoms: C_1  and  C_2 
REMARK    2  A    between atoms: C_1  and  N_3 
REMARK    3  A    between atoms: C_12  and  O_18 
REMARK    4  A    between atoms: O_18  and  C_21 
REMARK    5  A    between atoms: N_19  and  C_22 
ROOT
HETATM    1  C   UNL     1       0.592   1.284  -0.251  1.00  0.00     0.055 C 
HETATM    2  C   UNL     1       1.413  -0.015   0.054  1.00  0.00     0.036 C 
HETATM    3  C   UNL     1      -0.793   1.084   0.474  1.00  0.00     0.036 C 
HETATM    4  C   UNL     1       0.692  -1.312  -0.316  1.00  0.00     0.007 C 
HETATM    5  C   UNL     1      -1.504  -0.272   0.369  1.00  0.00     0.007 C 
HETATM    6  C   UNL     1      -0.586  -1.484   0.503  1.00  0.00    -0.019 C 
HETATM    7  C   UNL     1      -1.324  -2.756   0.083  1.00  0.00     0.010 C 
ENDROOT
BRANCH   1   8
HETATM    8  C   UNL     1       1.278   2.530   0.406  1.00  0.00    -0.028 A 
HETATM    9  C   UNL     1       0.557   3.728   0.615  1.00  0.00     0.046 A 
HETATM   10  C   UNL     1       1.170   4.873   1.137  1.00  0.00     0.069 A 
HETATM   11  C   UNL     1       2.519   4.828   1.485  1.00  0.00     0.037 A 
HETATM   12  C   UNL     1       3.252   3.661   1.310  1.00  0.00     0.003 A 
HETATM   13  C   UNL     1       2.639   2.528   0.773  1.00  0.00     0.010 A 
BRANCH  10  14
HETATM   14  O   UNL     1       0.588   6.093   1.328  1.00  0.00    -0.352 OA
BRANCH  14  15
HETATM   15  C   UNL     1      -0.804   6.259   1.069  1.00  0.00     0.171 C 
HETATM   16  C   UNL     1      -1.077   6.489  -0.408  1.00  0.00     0.034 C 
ENDBRANCH  14  15
ENDBRANCH  10  14
ENDBRANCH   1   8
BRANCH   1  17
HETATM   17  N   UNL     1       0.575   1.357  -1.738  1.00  0.00    -0.396 N 
HETATM   18  C   UNL     1       1.516   2.255  -2.443  1.00  0.00     0.137 C 
HETATM   19  C   UNL     1       0.945   3.646  -2.854  1.00  0.00     0.142 C 
HETATM   20  N   UNL     1      -0.365   3.511  -3.533  1.00  0.00    -0.378 N 
HETATM   21  C   UNL     1      -1.314   2.667  -2.778  1.00  0.00     0.142 C 
HETATM   22  C   UNL     1      -0.675   1.299  -2.494  1.00  0.00     0.137 C 
BRANCH  20  23
HETATM   23  C   UNL     1      -0.947   4.624  -4.152  1.00  0.00     0.030 A 
HETATM   24  C   UNL     1      -2.031   4.446  -5.032  1.00  0.00     0.029 A 
HETATM   25  C   UNL     1      -2.664   5.522  -5.661  1.00  0.00     0.002 A 
HETATM   26  C   UNL     1      -2.213   6.816  -5.436  1.00  0.00     0.000 A 
HETATM   27  C   UNL     1      -1.123   7.022  -4.597  1.00  0.00     0.002 A 
HETATM   28  C   UNL     1      -0.492   5.937  -3.974  1.00  0.00     0.029 A 
ENDBRANCH  20  23
ENDBRANCH   1  17
TORSDOF 5
