REMARK  7 active torsions:
REMARK  status: ('A' for Active; 'I' for Inactive)
REMARK    1  A    between atoms: C_1  and  C_8 
REMARK    2  A    between atoms: C_2  and  O_9 
REMARK    3  A    between atoms: C_5  and  S_7 
REMARK    4  A    between atoms: S_7  and  N_20 
REMARK    5  A    between atoms: C_8  and  N_22 
REMARK    6  A    between atoms: O_9  and  C_10 
REMARK    7  A    between atoms: C_15  and  S_16 
ROOT
HETATM    1  C   UNL     1      -1.515   0.203   0.122  1.00  0.00     0.005 A 
HETATM    2  C   UNL     1      -0.956  -1.075  -0.118  1.00  0.00     0.084 A 
HETATM    3  C   UNL     1      -0.615   1.285   0.273  1.00  0.00     0.036 A 
HETATM    4  C   UNL     1       0.445  -1.219  -0.218  1.00  0.00     0.039 A 
HETATM    5  C   UNL     1       0.759   1.133   0.089  1.00  0.00     0.075 A 
HETATM    6  C   UNL     1       1.303  -0.124  -0.137  1.00  0.00     0.027 A 
ENDROOT
BRANCH   2   7
HETATM    7  O   UNL     1      -1.576  -2.308  -0.092  1.00  0.00    -0.310 OA
BRANCH   7   8
HETATM    8  C   UNL     1      -2.728  -2.612  -0.764  1.00  0.00     0.076 C 
HETATM    9  C   UNL     1      -3.344  -3.805  -0.367  1.00  0.00     0.045 C 
HETATM   10  C   UNL     1      -4.615  -4.167  -0.847  1.00  0.00    -0.043 C 
HETATM   11  C   UNL     1      -5.324  -3.240  -1.630  1.00  0.00     0.006 C 
HETATM   12  C   UNL     1      -5.164  -5.527  -0.505  1.00  0.00     0.049 C 
HETATM   13  C   UNL     1      -4.632  -2.138  -2.150  1.00  0.00     0.022 C 
HETATM   14  C   UNL     1      -3.309  -1.872  -1.780  1.00  0.00     0.038 C 
BRANCH  11  15
HETATM   15  S   UNL     1      -7.071  -3.447  -1.977  1.00  0.00    -0.134 SA
HETATM   16  C   UNL     1      -7.694  -1.763  -1.665  1.00  0.00     0.095 C 
ENDBRANCH  11  15
ENDBRANCH   7   8
ENDBRANCH   2   7
BRANCH   1  17
HETATM   17  C   UNL     1      -2.996   0.487   0.335  1.00  0.00     0.312 C 
BRANCH  17  18
HETATM   18  N   UNL     1      -3.487   1.854   0.003  1.00  0.00     0.084 N 
HETATM   19  C   UNL     1      -3.153   2.311  -1.352  1.00  0.00     0.309 C 
HETATM   20  C   UNL     1      -4.951   1.876   0.139  1.00  0.00     0.309 C 
ENDBRANCH  17  18
ENDBRANCH   1  17
BRANCH   5  21
HETATM   21  S   UNL     1       1.814   2.551   0.096  1.00  0.00     0.239 S 
HETATM   22  O   UNL     1       2.913   2.318   0.991  1.00  0.00    -0.206 OA
HETATM   23  O   UNL     1       1.007   3.755   0.134  1.00  0.00    -0.206 OA
BRANCH  21  24
HETATM   24  N   UNL     1       2.449   2.512  -1.462  1.00  0.00    -0.225 NA
HETATM   25  H   UNL     1       3.464   2.424  -1.416  1.00  0.00     0.136 HD
HETATM   26  H   UNL     1       2.127   3.327  -1.985  1.00  0.00     0.136 HD
ENDBRANCH  21  24
ENDBRANCH   5  21
TORSDOF 7
