REMARK  4 active torsions:
REMARK  status: ('A' for Active; 'I' for Inactive)
REMARK    1  A    between atoms: C_3  and  C_7 
REMARK    2  A    between atoms: C_5  and  N_11 
REMARK    3  A    between atoms: C_12  and  S_16 
REMARK    4  A    between atoms: S_16  and  N_19 
ROOT
HETATM    1  C   UNL     1       0.087   0.586   0.202  1.00  0.00    -0.041 A 
HETATM    2  C   UNL     1       0.121  -0.804  -0.037  1.00  0.00    -0.017 A 
HETATM    3  C   UNL     1      -1.221   1.356   0.301  1.00  0.00     0.052 C 
HETATM    4  C   UNL     1       1.296   1.303   0.311  1.00  0.00     0.010 A 
HETATM    5  C   UNL     1      -1.147  -1.636  -0.171  1.00  0.00     0.253 C 
HETATM    6  C   UNL     1       1.371  -1.426  -0.229  1.00  0.00     0.034 A 
HETATM    7  C   UNL     1      -2.405   0.578  -0.303  1.00  0.00     0.016 C 
HETATM    8  C   UNL     1       2.526   0.664   0.171  1.00  0.00     0.025 A 
HETATM    9  C   UNL     1      -2.458  -0.883   0.127  1.00  0.00     0.041 C 
HETATM   10  C   UNL     1       2.557  -0.699  -0.110  1.00  0.00     0.074 A 
ENDROOT
BRANCH   3  11
HETATM   11  C   UNL     1      -1.487   1.925   1.694  1.00  0.00    -0.048 A 
HETATM   12  C   UNL     1      -1.776   1.115   2.802  1.00  0.00     0.033 A 
HETATM   13  C   UNL     1      -2.035   1.667   4.063  1.00  0.00     0.056 A 
HETATM   14  C   UNL     1      -1.971   3.049   4.244  1.00  0.00     0.055 A 
HETATM   15 CL   UNL     1      -2.433   0.579   5.347  1.00  0.00    -0.083 Cl
HETATM   16  C   UNL     1      -1.651   3.869   3.162  1.00  0.00     0.026 A 
HETATM   17 CL   UNL     1      -2.268   3.801   5.770  1.00  0.00    -0.083 Cl
HETATM   18  C   UNL     1      -1.418   3.313   1.899  1.00  0.00     0.009 A 
ENDBRANCH   3  11
BRANCH   5  19
HETATM   19  N   UNL     1      -1.144  -2.928   0.547  1.00  0.00     0.088 N 
HETATM   20  C   UNL     1      -0.550  -2.916   1.879  1.00  0.00     0.307 C 
HETATM   21  H   UNL     1      -2.103  -3.269   0.617  1.00  0.00     0.316 HD
ENDBRANCH   5  19
BRANCH  10  22
HETATM   22  S   UNL     1       4.117  -1.513  -0.257  1.00  0.00     0.239 S 
HETATM   23  O   UNL     1       5.003  -1.010   0.767  1.00  0.00    -0.206 OA
HETATM   24  O   UNL     1       3.913  -2.925  -0.482  1.00  0.00    -0.206 OA
BRANCH  22  25
HETATM   25  N   UNL     1       4.697  -0.906  -1.712  1.00  0.00    -0.225 NA
HETATM   26  H   UNL     1       5.566  -0.398  -1.547  1.00  0.00     0.136 HD
HETATM   27  H   UNL     1       4.788  -1.669  -2.384  1.00  0.00     0.136 HD
ENDBRANCH  22  25
ENDBRANCH  10  22
TORSDOF 4
