REMARK  7 active torsions:
REMARK  status: ('A' for Active; 'I' for Inactive)
REMARK    1  A    between atoms: C_2  and  C_5 
REMARK    2  A    between atoms: N_7  and  C_13 
REMARK    3  A    between atoms: C_13  and  C_17 
REMARK    4  A    between atoms: C_17  and  C_19 
REMARK    5  A    between atoms: C_19  and  C_20 
REMARK    6  A    between atoms: C_20  and  C_21 
REMARK    7  A    between atoms: C_21  and  O_22 
ROOT
HETATM    1  C   UNL     1       0.209  -0.806  -0.086  1.00  0.00     0.004 A 
HETATM    2  C   UNL     1       1.591  -1.185  -0.038  1.00  0.00     0.010 A 
HETATM    3  C   UNL     1       0.135   0.590   0.020  1.00  0.00     0.045 A 
HETATM    4  C   UNL     1      -0.996  -1.545  -0.211  1.00  0.00     0.014 A 
HETATM    5  C   UNL     1       2.331  -0.014   0.090  1.00  0.00     0.020 A 
HETATM    6  N   UNL     1       1.439   1.062   0.063  1.00  0.00    -0.349 N 
HETATM    7  C   UNL     1      -1.126   1.225   0.050  1.00  0.00     0.030 A 
HETATM    8  C   UNL     1      -2.235  -0.908  -0.174  1.00  0.00     0.001 A 
HETATM    9  C   UNL     1       3.808   0.190   0.228  1.00  0.00     0.069 C 
HETATM   10  C   UNL     1      -2.296   0.465  -0.037  1.00  0.00     0.002 A 
ENDROOT
BRANCH   6  11
HETATM   11  C   UNL     1       1.913   2.451   0.060  1.00  0.00     0.129 C 
BRANCH  11  12
HETATM   12  C   UNL     1       0.888   3.580   0.014  1.00  0.00     0.021 C 
BRANCH  12  13
HETATM   13  C   UNL     1       1.499   4.985  -0.007  1.00  0.00     0.012 C 
BRANCH  13  14
HETATM   14  C   UNL     1       0.374   6.026  -0.013  1.00  0.00     0.110 C 
BRANCH  14  15
HETATM   15  C   UNL     1       0.746   7.492  -0.011  1.00  0.00     0.139 C 
HETATM   16  O   UNL     1      -0.105   8.370  -0.006  1.00  0.00    -0.650 OA
BRANCH  15  17
HETATM   17  O   UNL     1       2.057   7.789  -0.013  1.00  0.00    -0.776 OA
HETATM   18  H   UNL     1       2.675   7.040  -0.018  1.00  0.00     0.167 HD
ENDBRANCH  15  17
ENDBRANCH  14  15
ENDBRANCH  13  14
ENDBRANCH  12  13
ENDBRANCH  11  12
ENDBRANCH   6  11
BRANCH   2  19
HETATM   19  C   UNL     1       2.147  -2.541  -0.084  1.00  0.00    -0.005 A 
HETATM   20  C   UNL     1       1.512  -3.603   0.570  1.00  0.00     0.015 A 
HETATM   21  C   UNL     1       2.005  -4.903   0.450  1.00  0.00     0.020 A 
HETATM   22  C   UNL     1       3.152  -5.103  -0.296  1.00  0.00     0.116 A 
HETATM   23  N   UNL     1       3.814  -4.110  -0.925  1.00  0.00    -0.272 NA
HETATM   24  C   UNL     1       3.287  -2.862  -0.816  1.00  0.00     0.128 A 
ENDBRANCH   2  19
TORSDOF 7
