REMARK  5 active torsions:
REMARK  status: ('A' for Active; 'I' for Inactive)
REMARK    1  A    between atoms: C_1  and  N_4 
REMARK       I    between atoms: N_4  and  C_9 
REMARK       I    between atoms: C_9  and  N_15 
REMARK    2  A    between atoms: N_15  and  S_17 
REMARK    3  A    between atoms: S_17  and  C_18 
REMARK    4  A    between atoms: C_23  and  C_25 
REMARK    5  A    between atoms: C_25  and  O_28 
ROOT
HETATM    1  N   UNL     1       0.123  -3.151  -0.016  1.00  0.00    -0.307 N 
HETATM    2  C   UNL     1      -0.962  -3.530  -0.786  1.00  0.00     0.334 C 
HETATM    3  N   UNL     1      -1.922  -2.614  -1.307  1.00  0.00    -0.230 N 
HETATM    4  O   UNL     1      -1.090  -4.717  -1.074  1.00  0.00    -0.246 OA
HETATM    5  H   UNL     1       0.903  -3.791  -0.018  1.00  0.00     0.170 HD
HETATM    6  H   UNL     1      -2.642  -3.055  -1.875  1.00  0.00     0.183 HD
ENDROOT
BRANCH   1   7
HETATM    7  C   UNL     1       0.269  -1.829   0.300  1.00  0.00     0.050 C 
HETATM    8  C   UNL     1      -0.870  -1.140   0.395  1.00  0.00    -0.024 C 
HETATM    9  C   UNL     1      -0.924   0.585  -0.136  1.00  0.00    -0.049 C 
HETATM   10  C   UNL     1      -2.719  -1.811   0.920  1.00  0.00     0.042 C 
HETATM   11  C   UNL     1       0.206   1.311  -0.313  1.00  0.00     0.015 C 
HETATM   12  C   UNL     1      -2.794   1.188  -0.245  1.00  0.00     0.039 C 
HETATM   13  C   UNL     1       1.331   0.490  -0.089  1.00  0.00    -0.049 C 
HETATM   14  C   UNL     1       1.381  -0.994   0.138  1.00  0.00    -0.024 C 
HETATM   15  C   UNL     1       2.735   1.039  -0.018  1.00  0.00     0.039 C 
HETATM   16  C   UNL     1       2.827  -1.421   0.156  1.00  0.00     0.042 C 
HETATM   17  C   UNL     1       3.566  -0.187  -0.382  1.00  0.00     0.009 C 
HETATM   18  C   UNL     1      -3.937  -0.210   0.642  1.00  0.00     0.009 C 
ENDBRANCH   1   7
BRANCH   3  19
HETATM   19  S   UNL     1      -2.460  -0.898  -1.012  1.00  0.00     0.288 S 
HETATM   20  O   UNL     1      -1.708  -0.212  -2.076  1.00  0.00    -0.198 OA
HETATM   21  O   UNL     1      -3.868  -1.102  -1.377  1.00  0.00    -0.198 OA
BRANCH  19  22
HETATM   22  C   UNL     1      -2.139   0.014   1.331  1.00  0.00     0.190 A 
HETATM   23  C   UNL     1      -2.046   1.312   2.087  1.00  0.00     0.063 A 
HETATM   24  C   UNL     1      -1.370   1.183   3.358  1.00  0.00     0.001 A 
HETATM   25  C   UNL     1      -1.152  -0.146   3.533  1.00  0.00     0.153 A 
HETATM   26  O   UNL     1      -1.556  -0.854   2.484  1.00  0.00    -0.309 OA
BRANCH  24  27
HETATM   27  C   UNL     1      -0.901   2.265   4.291  1.00  0.00     0.079 C 
HETATM   28  C   UNL     1      -1.480   2.059   5.696  1.00  0.00     0.051 C 
HETATM   29  C   UNL     1       0.635   2.294   4.358  1.00  0.00     0.051 C 
BRANCH  27  30
HETATM   30  O   UNL     1      -1.317   3.553   3.831  1.00  0.00    -0.386 OA
HETATM   31  H   UNL     1      -2.289   3.557   3.844  1.00  0.00     0.211 HD
ENDBRANCH  27  30
ENDBRANCH  24  27
ENDBRANCH  19  22
ENDBRANCH   3  19
TORSDOF 5
