REMARK  7 active torsions:
REMARK  status: ('A' for Active; 'I' for Inactive)
REMARK    1  A    between atoms: C_1  and  C_2 
REMARK    2  A    between atoms: C_1  and  C_5 
REMARK    3  A    between atoms: C_5  and  O_10 
REMARK    4  A    between atoms: C_16  and  O_19 
REMARK    5  A    between atoms: C_18  and  C_20 
REMARK    6  A    between atoms: C_20  and  C_21 
REMARK    7  A    between atoms: C_26  and  C_27 
ROOT
HETATM    1  C   UNL     1      -1.068  -1.224  -1.596  1.00  0.00    -0.036 A 
HETATM    2  C   UNL     1      -1.492  -0.215  -2.474  1.00  0.00     0.045 A 
HETATM    3  C   UNL     1      -0.863  -2.506  -2.145  1.00  0.00     0.009 A 
HETATM    4  C   UNL     1      -1.660  -0.460  -3.840  1.00  0.00     0.078 A 
HETATM    5  C   UNL     1      -1.068  -2.764  -3.504  1.00  0.00     0.013 A 
HETATM    6  C   UNL     1      -1.472  -1.739  -4.364  1.00  0.00     0.004 A 
HETATM    7  O   UNL     1      -2.057   0.615  -4.590  1.00  0.00    -0.350 OA
HETATM    8  C   UNL     1      -1.710  -2.016  -5.824  1.00  0.00     0.160 C 
HETATM    9  C   UNL     1      -1.932   0.431  -6.003  1.00  0.00     0.183 C 
HETATM   10  C   UNL     1      -2.528  -0.897  -6.476  1.00  0.00     0.048 C 
ENDROOT
BRANCH  10  11
HETATM   11  C   UNL     1      -4.024  -0.976  -6.105  1.00  0.00     0.048 C 
BRANCH  11  12
HETATM   12  C   UNL     1      -4.868  -2.032  -6.783  1.00  0.00    -0.058 A 
HETATM   13  C   UNL     1      -4.411  -2.863  -7.807  1.00  0.00     0.008 A 
HETATM   14  C   UNL     1      -5.296  -3.707  -8.488  1.00  0.00     0.013 A 
HETATM   15  C   UNL     1      -6.669  -3.728  -8.194  1.00  0.00    -0.026 A 
HETATM   16  C   UNL     1      -7.099  -2.954  -7.105  1.00  0.00     0.013 A 
HETATM   17  C   UNL     1      -6.215  -2.125  -6.409  1.00  0.00     0.008 A 
BRANCH  15  18
HETATM   18  C   UNL     1      -7.637  -4.443  -9.059  1.00  0.00    -0.026 A 
HETATM   19  C   UNL     1      -7.438  -4.510 -10.452  1.00  0.00     0.012 A 
HETATM   20  C   UNL     1      -8.388  -5.081 -11.303  1.00  0.00     0.001 A 
HETATM   21  C   UNL     1      -9.568  -5.595 -10.778  1.00  0.00     0.000 A 
HETATM   22  C   UNL     1      -9.784  -5.560  -9.404  1.00  0.00     0.001 A 
HETATM   23  C   UNL     1      -8.824  -5.000  -8.554  1.00  0.00     0.012 A 
ENDBRANCH  15  18
ENDBRANCH  11  12
ENDBRANCH  10  11
BRANCH   8  24
HETATM   24  O   UNL     1      -0.458  -2.114  -6.511  1.00  0.00    -0.390 OA
HETATM   25  H   UNL     1       0.254  -1.927  -5.875  1.00  0.00     0.210 HD
ENDBRANCH   8  24
BRANCH   1  26
HETATM   26  C   UNL     1      -0.772  -0.976  -0.106  1.00  0.00     0.072 C 
HETATM   27  C   UNL     1       0.762  -1.069   0.145  1.00  0.00     0.025 C 
HETATM   28  C   UNL     1       1.326   0.354   0.134  1.00  0.00     0.002 C 
HETATM   29  C   UNL     1       0.142   1.293   0.006  1.00  0.00     0.002 C 
HETATM   30  C   UNL     1      -1.059   0.455   0.416  1.00  0.00     0.025 C 
BRANCH  26  31
HETATM   31  C   UNL     1      -1.476  -2.034   0.775  1.00  0.00     0.153 C 
HETATM   32  O   UNL     1      -1.020  -3.152   0.993  1.00  0.00    -0.649 OA
BRANCH  31  33
HETATM   33  O   UNL     1      -2.679  -1.676   1.277  1.00  0.00    -0.776 OA
HETATM   34  H   UNL     1      -3.006  -0.799   1.009  1.00  0.00     0.167 HD
ENDBRANCH  31  33
ENDBRANCH  26  31
ENDBRANCH   1  26
TORSDOF 7
