REMARK  9 active torsions:
REMARK  status: ('A' for Active; 'I' for Inactive)
REMARK    1  A    between atoms: C_3  and  O_8 
REMARK    2  A    between atoms: N_5  and  C_10 
REMARK    3  A    between atoms: O_8  and  C_12 
REMARK    4  A    between atoms: C_10  and  C_13 
REMARK    5  A    between atoms: C_12  and  C_14 
REMARK    6  A    between atoms: C_13  and  C_27 
REMARK    7  A    between atoms: C_14  and  C_15 
REMARK    8  A    between atoms: C_18  and  C_21 
REMARK    9  A    between atoms: C_27  and  O_29 
ROOT
HETATM    1  C   UNL     1      -0.200   0.764  -0.000  1.00  0.00     0.025 A 
HETATM    2  C   UNL     1      -0.150  -0.644  -0.000  1.00  0.00     0.047 A 
HETATM    3  C   UNL     1       0.999   1.523  -0.000  1.00  0.00     0.081 A 
HETATM    4  C   UNL     1      -1.572   1.136  -0.001  1.00  0.00     0.034 A 
HETATM    5  N   UNL     1      -1.460  -1.095   0.000  1.00  0.00    -0.355 N 
HETATM    6  C   UNL     1       1.089  -1.308  -0.000  1.00  0.00     0.031 A 
HETATM    7  C   UNL     1       2.220   0.828  -0.002  1.00  0.00     0.038 A 
HETATM    8  C   UNL     1      -2.318  -0.014  -0.000  1.00  0.00     0.092 A 
HETATM    9  C   UNL     1       2.262  -0.558  -0.001  1.00  0.00     0.005 A 
ENDROOT
BRANCH   3  10
HETATM   10  O   UNL     1       0.887   2.900   0.002  1.00  0.00    -0.350 OA
BRANCH  10  11
HETATM   11  C   UNL     1       2.132   3.600   0.007  1.00  0.00     0.181 C 
BRANCH  11  12
HETATM   12  C   UNL     1       1.936   5.117   0.015  1.00  0.00     0.088 C 
BRANCH  12  13
HETATM   13  C   UNL     1       3.253   5.818   0.010  1.00  0.00     0.068 A 
HETATM   14  N   UNL     1       4.420   5.088   0.004  1.00  0.00    -0.226 NA
HETATM   15  C   UNL     1       5.383   5.985  -0.028  1.00  0.00     0.180 A 
HETATM   16  O   UNL     1       4.931   7.279  -0.028  1.00  0.00    -0.294 OA
HETATM   17  C   UNL     1       3.564   7.161  -0.004  1.00  0.00     0.076 A 
HETATM   18  C   UNL     1       2.786   8.411  -0.008  1.00  0.00     0.079 C 
BRANCH  15  19
HETATM   19  C   UNL     1       6.821   5.746  -0.089  1.00  0.00     0.017 A 
HETATM   20  C   UNL     1       7.761   6.780  -0.169  1.00  0.00     0.016 A 
HETATM   21  C   UNL     1       9.127   6.490  -0.255  1.00  0.00     0.001 A 
HETATM   22  C   UNL     1       9.568   5.167  -0.259  1.00  0.00     0.000 A 
HETATM   23  C   UNL     1       8.646   4.128  -0.172  1.00  0.00     0.001 A 
HETATM   24  C   UNL     1       7.284   4.418  -0.087  1.00  0.00     0.016 A 
ENDBRANCH  15  19
ENDBRANCH  12  13
ENDBRANCH  11  12
ENDBRANCH  10  11
ENDBRANCH   3  10
BRANCH   5  25
HETATM   25  C   UNL     1      -1.999  -2.451   0.002  1.00  0.00     0.139 C 
BRANCH  25  26
HETATM   26  C   UNL     1      -1.027  -3.620   0.002  1.00  0.00     0.130 C 
BRANCH  26  27
HETATM   27  C   UNL     1      -1.757  -4.934   0.003  1.00  0.00     0.140 C 
HETATM   28  O   UNL     1      -2.969  -5.067   0.003  1.00  0.00    -0.650 OA
BRANCH  27  29
HETATM   29  O   UNL     1      -0.911  -5.991   0.003  1.00  0.00    -0.776 OA
HETATM   30  H   UNL     1       0.036  -5.751   0.002  1.00  0.00     0.167 HD
ENDBRANCH  27  29
ENDBRANCH  26  27
ENDBRANCH  25  26
ENDBRANCH   5  25
TORSDOF 9
