REMARK  2 active torsions:
REMARK  status: ('A' for Active; 'I' for Inactive)
REMARK    1  A    between atoms: C_3  and  C_8 
REMARK       I    between atoms: N_5  and  C_10 
REMARK    2  A    between atoms: C_8  and  C_13 
REMARK       I    between atoms: C_10  and  N_16 
ROOT
HETATM    1  C   UNL     1      -1.281   0.362  -0.372  1.00  0.00    -0.007 A 
HETATM    2  C   UNL     1      -1.492  -0.348   0.815  1.00  0.00     0.056 A 
HETATM    3  C   UNL     1      -2.597   0.525  -1.107  1.00  0.00     0.189 C 
HETATM    4  C   UNL     1       0.003   0.757  -0.713  1.00  0.00     0.054 A 
HETATM    5  N   UNL     1      -2.855  -0.657   0.938  1.00  0.00    -0.233 N 
HETATM    6  C   UNL     1      -0.461  -0.663   1.691  1.00  0.00     0.057 A 
HETATM    7  C   UNL     1      -3.503  -0.407  -0.278  1.00  0.00     0.248 C 
HETATM    8  C   UNL     1       1.050   0.456   0.165  1.00  0.00     0.138 A 
HETATM    9  C   UNL     1      -3.474  -0.552   2.175  1.00  0.00     0.327 C 
HETATM   10  C   UNL     1       0.827  -0.257   1.351  1.00  0.00     0.074 A 
HETATM   11  O   UNL     1      -4.591  -0.853  -0.615  1.00  0.00    -0.271 OA
HETATM   12  F   UNL     1       2.287   0.861  -0.160  1.00  0.00    -0.204 F 
HETATM   13  N   UNL     1      -4.593   0.238   2.182  1.00  0.00    -0.351 N 
HETATM   14  O   UNL     1      -3.018  -0.959   3.239  1.00  0.00    -0.247 OA
HETATM   15 CL   UNL     1       2.142  -0.668   2.384  1.00  0.00    -0.081 Cl
HETATM   16  H   UNL     1      -5.201   0.274   1.369  1.00  0.00     0.160 HD
HETATM   17  H   UNL     1      -5.046   0.351   3.079  1.00  0.00     0.160 HD
ENDROOT
BRANCH   3  18
HETATM   18  C   UNL     1      -3.304   1.883  -1.081  1.00  0.00     0.184 C 
HETATM   19  O   UNL     1      -4.536   1.929  -1.127  1.00  0.00    -0.290 OA
BRANCH  18  20
HETATM   20  C   UNL     1      -2.571   3.121  -0.935  1.00  0.00     0.053 A 
HETATM   21  C   UNL     1      -2.843   4.113  -0.011  1.00  0.00     0.047 A 
HETATM   22  C   UNL     1      -2.014   5.250  -0.187  1.00  0.00     0.042 A 
HETATM   23 CL   UNL     1      -2.102   6.622   0.824  1.00  0.00    -0.084 Cl
HETATM   24  C   UNL     1      -1.164   5.107  -1.260  1.00  0.00     0.074 A 
HETATM   25  S   UNL     1      -1.406   3.619  -2.073  1.00  0.00    -0.097 SA
ENDBRANCH  18  20
ENDBRANCH   3  18
TORSDOF 2
