REMARK  6 active torsions:
REMARK  status: ('A' for Active; 'I' for Inactive)
REMARK    1  A    between atoms: C_2  and  O_5 
REMARK    2  A    between atoms: O_5  and  C_10 
REMARK    3  A    between atoms: C_7  and  O_12 
REMARK    4  A    between atoms: C_19  and  N_20 
REMARK       I    between atoms: N_20  and  C_21 
REMARK    5  A    between atoms: C_21  and  C_22 
REMARK    6  A    between atoms: C_22  and  O_24 
ROOT
HETATM    1  C   UNL     1       1.702   3.541  -0.144  1.00  0.00     0.088 C 
HETATM    2  C   UNL     1       2.971   3.186  -0.640  1.00  0.00    -0.025 C 
HETATM    3  C   UNL     1       1.464   4.895   0.173  1.00  0.00    -0.025 C 
HETATM    4  C   UNL     1       4.035   4.112  -0.545  1.00  0.00     0.039 C 
HETATM    5  C   UNL     1       3.305   1.879  -1.312  1.00  0.00     0.051 C 
HETATM    6  C   UNL     1       2.538   5.805   0.217  1.00  0.00     0.039 C 
HETATM    7  C   UNL     1       0.074   5.447   0.367  1.00  0.00     0.051 C 
HETATM    8  C   UNL     1       3.844   5.399  -0.060  1.00  0.00     0.036 C 
ENDROOT
BRANCH   1   9
HETATM    9  O   UNL     1       0.602   2.714  -0.027  1.00  0.00    -0.309 OA
BRANCH   9  10
HETATM   10  C   UNL     1       0.693   1.408   0.389  1.00  0.00     0.083 C 
HETATM   11  C   UNL     1      -0.393   0.588   0.096  1.00  0.00    -0.015 C 
HETATM   12  C   UNL     1      -0.299  -0.807   0.194  1.00  0.00    -0.016 C 
HETATM   13  C   UNL     1      -1.756   0.997  -0.376  1.00  0.00     0.042 C 
HETATM   14  C   UNL     1       0.872  -1.392   0.634  1.00  0.00     0.072 C 
HETATM   15  C   UNL     1      -1.559  -1.460  -0.278  1.00  0.00     0.042 C 
HETATM   16  C   UNL     1       1.889  -0.579   1.119  1.00  0.00     0.040 C 
HETATM   17  C   UNL     1       1.779   0.821   1.040  1.00  0.00     0.040 C 
HETATM   18  C   UNL     1      -2.557  -0.301  -0.186  1.00  0.00     0.009 C 
BRANCH  14  19
HETATM   19  O   UNL     1       1.073  -2.736   0.613  1.00  0.00    -0.360 OA
HETATM   20  H   UNL     1       0.411  -3.130   0.022  1.00  0.00     0.217 HD
ENDBRANCH  14  19
ENDBRANCH   9  10
ENDBRANCH   1   9
BRANCH   8  21
HETATM   21  N   UNL     1       4.858   6.362   0.067  1.00  0.00    -0.318 N 
HETATM   22  C   UNL     1       6.228   6.262   0.114  1.00  0.00     0.319 C 
HETATM   23  O   UNL     1       6.943   7.258  -0.025  1.00  0.00    -0.261 OA
HETATM   24  H   UNL     1       4.551   7.325   0.143  1.00  0.00     0.169 HD
BRANCH  22  25
HETATM   25  C   UNL     1       6.979   4.947   0.384  1.00  0.00     0.237 C 
HETATM   26  O   UNL     1       6.521   3.951   0.920  1.00  0.00    -0.643 OA
BRANCH  25  27
HETATM   27  O   UNL     1       8.268   5.078   0.002  1.00  0.00    -0.769 OA
HETATM   28  H   UNL     1       8.427   6.018  -0.255  1.00  0.00     0.168 HD
ENDBRANCH  25  27
ENDBRANCH  22  25
ENDBRANCH   8  21
TORSDOF 6
