REMARK  4 active torsions:
REMARK  status: ('A' for Active; 'I' for Inactive)
REMARK    1  A    between atoms: C_2  and  C_4 
REMARK    2  A    between atoms: C_12  and  O_13 
REMARK    3  A    between atoms: C_14  and  N_15 
REMARK       I    between atoms: N_15  and  C_16 
REMARK    4  A    between atoms: C_16  and  C_18 
ROOT
HETATM    1  C   UNL     1       3.085  -1.113  -0.849  1.00  0.00     0.010 A 
HETATM    2  C   UNL     1       2.682  -2.402  -0.491  1.00  0.00     0.018 A 
HETATM    3  C   UNL     1       3.322  -3.510  -1.050  1.00  0.00     0.038 A 
HETATM    4  C   UNL     1       4.352  -3.342  -1.978  1.00  0.00     0.078 A 
HETATM    5  O   UNL     1       4.914  -4.497  -2.443  1.00  0.00    -0.338 OA
HETATM    6  C   UNL     1       5.748  -4.394  -3.615  1.00  0.00     0.088 C 
HETATM    7  C   UNL     1       4.845  -4.396  -4.860  1.00  0.00     0.049 C 
HETATM    8  C   UNL     1       6.581  -5.688  -3.647  1.00  0.00     0.049 C 
HETATM    9  C   UNL     1       6.689  -3.166  -3.528  1.00  0.00     0.179 C 
HETATM   10  C   UNL     1       5.900  -1.851  -3.325  1.00  0.00     0.152 C 
HETATM   11  C   UNL     1       4.771  -2.060  -2.344  1.00  0.00     0.002 A 
HETATM   12  C   UNL     1       4.133  -0.948  -1.766  1.00  0.00     0.027 A 
ENDROOT
BRANCH  10  13
HETATM   13  N   UNL     1       5.387  -1.312  -4.580  1.00  0.00    -0.345 N 
HETATM   14  C   UNL     1       6.199  -0.639  -5.460  1.00  0.00     0.252 C 
HETATM   15  O   UNL     1       7.363  -0.336  -5.240  1.00  0.00    -0.268 OA
HETATM   16  H   UNL     1       4.405  -1.426  -4.798  1.00  0.00     0.163 HD
BRANCH  14  17
HETATM   17  C   UNL     1       5.571  -0.287  -6.751  1.00  0.00     0.032 A 
HETATM   18  C   UNL     1       4.976  -1.282  -7.539  1.00  0.00     0.020 A 
HETATM   19  C   UNL     1       4.424  -0.944  -8.774  1.00  0.00     0.043 A 
HETATM   20  C   UNL     1       4.465   0.379  -9.205  1.00  0.00     0.116 A 
HETATM   21  F   UNL     1       3.933   0.700 -10.391  1.00  0.00    -0.206 F 
HETATM   22  C   UNL     1       5.057   1.372  -8.428  1.00  0.00     0.043 A 
HETATM   23  C   UNL     1       5.625   1.037  -7.197  1.00  0.00     0.020 A 
ENDBRANCH  14  17
ENDBRANCH  10  13
BRANCH   9  24
HETATM   24  O   UNL     1       7.620  -3.332  -2.438  1.00  0.00    -0.390 OA
HETATM   25  H   UNL     1       7.098  -3.537  -1.640  1.00  0.00     0.210 HD
ENDBRANCH   9  24
BRANCH   1  26
HETATM   26  C   UNL     1       2.441   0.101  -0.276  1.00  0.00     0.155 C 
HETATM   27  C   UNL     1       1.044  -0.014   0.275  1.00  0.00     0.096 C 
HETATM   28  O   UNL     1       3.044   1.172  -0.284  1.00  0.00    -0.293 OA
ENDBRANCH   1  26
TORSDOF 4
