REMARK  8 active torsions:
REMARK  status: ('A' for Active; 'I' for Inactive)
REMARK    1  A    between atoms: C_2  and  N_9 
REMARK    2  A    between atoms: N_5  and  C_34 
REMARK    3  A    between atoms: N_20  and  S_21 
REMARK    4  A    between atoms: S_21  and  C_24 
REMARK    5  A    between atoms: C_26  and  C_27 
REMARK       I    between atoms: C_27  and  N_29 
REMARK    6  A    between atoms: C_32  and  C_33 
REMARK    7  A    between atoms: C_32  and  C_37 
REMARK    8  A    between atoms: C_33  and  C_34 
ROOT
HETATM    1  C   UNL     1       8.366  -3.159  -0.152  1.00  0.00     0.255 C 
HETATM    2  O   UNL     1       9.106  -4.092  -0.473  1.00  0.00    -0.267 OA
HETATM    3  N   UNL     1       6.969  -3.308  -0.130  1.00  0.00    -0.348 N 
HETATM    4  C   UNL     1       6.363  -4.586  -0.509  1.00  0.00     0.127 C 
HETATM    5  C   UNL     1       5.442  -4.446  -1.727  1.00  0.00     0.034 C 
HETATM    6  C   UNL     1       4.438  -3.226  -1.747  1.00  0.00    -0.009 C 
HETATM    7  C   UNL     1       5.207  -2.009  -1.147  1.00  0.00     0.034 C 
HETATM    8  C   UNL     1       5.967  -2.296   0.147  1.00  0.00     0.127 C 
ENDROOT
BRANCH   6   9
HETATM    9  C   UNL     1       3.095  -3.483  -0.863  1.00  0.00     0.045 C 
BRANCH   9  10
HETATM   10  C   UNL     1       1.879  -2.547  -1.229  1.00  0.00     0.274 C 
BRANCH  10  11
HETATM   11  N   UNL     1       1.277  -1.386  -0.498  1.00  0.00     0.098 N 
HETATM   12  C   UNL     1      -0.152  -1.255   0.047  1.00  0.00     0.225 C 
HETATM   13  C   UNL     1      -0.523   0.256   0.454  1.00  0.00     0.061 C 
HETATM   14  C   UNL     1      -1.088  -1.421  -1.121  1.00  0.00     0.038 C 
HETATM   15  C   UNL     1       0.704   1.114   0.605  1.00  0.00     0.096 C 
HETATM   16  C   UNL     1       1.600   0.847  -0.627  1.00  0.00     0.061 C 
HETATM   17  C   UNL     1       1.154  -0.337  -1.537  1.00  0.00     0.225 C 
HETATM   18  C   UNL     1      -0.222  -0.762  -2.195  1.00  0.00     0.038 C 
BRANCH  15  19
HETATM   19  N   UNL     1       1.086   1.109   2.026  1.00  0.00    -0.329 N 
HETATM   20  C   UNL     1       1.278   0.002   2.857  1.00  0.00     0.103 C 
HETATM   21  C   UNL     1       1.951  -1.276   2.520  1.00  0.00     0.091 C 
HETATM   22  N   UNL     1       0.718   0.184   4.038  1.00  0.00    -0.234 NA
HETATM   23  C   UNL     1       0.237   1.456   4.050  1.00  0.00     0.085 A 
HETATM   24  C   UNL     1      -0.500   2.116   5.047  1.00  0.00     0.034 A 
HETATM   25  C   UNL     1       0.545   2.108   2.862  1.00  0.00     0.065 A 
HETATM   26  C   UNL     1      -0.890   3.441   4.836  1.00  0.00     0.002 A 
HETATM   27  C   UNL     1      -0.545   4.098   3.656  1.00  0.00     0.002 A 
HETATM   28  C   UNL     1       0.172   3.446   2.643  1.00  0.00     0.032 A 
ENDBRANCH  15  19
ENDBRANCH  10  11
ENDBRANCH   9  10
ENDBRANCH   6   9
BRANCH   6  29
HETATM   29  C   UNL     1       4.137  -2.952  -3.280  1.00  0.00    -0.046 A 
HETATM   30  C   UNL     1       3.884  -3.998  -4.189  1.00  0.00     0.008 A 
HETATM   31  C   UNL     1       3.772  -3.760  -5.572  1.00  0.00     0.004 A 
HETATM   32  C   UNL     1       3.875  -2.468  -6.080  1.00  0.00     0.042 A 
HETATM   33  C   UNL     1       4.073  -1.420  -5.199  1.00  0.00     0.117 A 
HETATM   34  F   UNL     1       4.167  -0.169  -5.669  1.00  0.00    -0.206 F 
HETATM   35  C   UNL     1       4.200  -1.648  -3.828  1.00  0.00     0.050 A 
ENDBRANCH   6  29
BRANCH   1  36
HETATM   36  C   UNL     1       9.067  -1.915   0.318  1.00  0.00     0.055 C 
HETATM   37  C   UNL     1      10.222  -2.112   1.111  1.00  0.00     0.047 C 
HETATM   38  C   UNL     1      10.975  -1.012   1.553  1.00  0.00     0.119 C 
HETATM   39  C   UNL     1      10.525   0.278   1.341  1.00  0.00     0.141 C 
HETATM   40  C   UNL     1       9.430   0.492   0.527  1.00  0.00     0.068 C 
HETATM   41  F   UNL     1      11.212   1.343   1.776  1.00  0.00    -0.204 F 
HETATM   42  C   UNL     1       8.783  -0.597  -0.073  1.00  0.00     0.052 C 
HETATM   43 CL   UNL     1       7.881  -0.177  -1.479  1.00  0.00    -0.083 Cl
BRANCH  38  44
HETATM   44  S   UNL     1      12.620  -1.201   2.165  1.00  0.00     0.261 S 
HETATM   45  O   UNL     1      12.716  -0.460   3.407  1.00  0.00    -0.200 OA
HETATM   46  O   UNL     1      12.976  -2.594   2.077  1.00  0.00    -0.200 OA
BRANCH  44  47
HETATM   47  N   UNL     1      13.524  -0.366   1.006  1.00  0.00    -0.320 N 
HETATM   48  C   UNL     1      13.537  -0.858  -0.370  1.00  0.00     0.159 C 
HETATM   49  H   UNL     1      13.515   0.645   1.150  1.00  0.00     0.171 HD
ENDBRANCH  44  47
ENDBRANCH  38  44
ENDBRANCH   1  36
TORSDOF 8
