REMARK  13 active torsions:
REMARK  status: ('A' for Active; 'I' for Inactive)
REMARK    1  A    between atoms: C_4  and  C_36 
REMARK    2  A    between atoms: C_6  and  C_7 
REMARK    3  A    between atoms: C_7  and  C_8 
REMARK    4  A    between atoms: C_8  and  O_9 
REMARK    5  A    between atoms: O_9  and  C_10 
REMARK    6  A    between atoms: C_13  and  C_14 
REMARK    7  A    between atoms: C_14  and  CA_15 
REMARK    8  A    between atoms: CA_15  and  C_31 
REMARK    9  A    between atoms: CA_15  and  N_16 
REMARK   10  A    between atoms: N_16  and  C_17 
REMARK   11  A    between atoms: C_22  and  C_23 
REMARK   12  A    between atoms: C_23  and  C_25 
REMARK   13  A    between atoms: C_31  and  OXT_33 
ROOT
HETATM    1  C   UNL     1      -2.478   8.501  -2.068  1.00  0.00     0.074 C 
ENDROOT
BRANCH   1   2
HETATM    2  C   UNL     1      -1.988   7.329  -2.894  1.00  0.00    -0.056 C 
HETATM    3  C   UNL     1      -2.751   6.181  -3.120  1.00  0.00     0.010 C 
HETATM    4  C   UNL     1      -2.179   5.040  -3.697  1.00  0.00     0.037 C 
HETATM    5  C   UNL     1      -0.855   5.059  -4.130  1.00  0.00     0.068 C 
HETATM    6  C   UNL     1      -0.144   6.255  -4.078  1.00  0.00     0.037 C 
HETATM    7  C   UNL     1      -0.702   7.378  -3.457  1.00  0.00     0.010 C 
BRANCH   5   8
HETATM    8  O   UNL     1      -0.200   3.976  -4.661  1.00  0.00    -0.351 OA
BRANCH   8   9
HETATM    9  C   UNL     1      -0.424   2.755  -3.936  1.00  0.00     0.181 C 
BRANCH   9  10
HETATM   10  C   UNL     1       0.440   1.640  -4.527  1.00  0.00     0.088 C 
BRANCH  10  11
HETATM   11  C   UNL     1       0.227   0.278  -3.944  1.00  0.00     0.068 A 
HETATM   12  C   UNL     1      -0.422  -0.149  -2.801  1.00  0.00     0.076 A 
HETATM   13  C   UNL     1      -1.161   0.475  -1.693  1.00  0.00     0.079 C 
HETATM   14  O   UNL     1      -0.309  -1.505  -2.731  1.00  0.00    -0.294 OA
HETATM   15  C   UNL     1       0.395  -1.858  -3.847  1.00  0.00     0.180 A 
HETATM   16  N   UNL     1       0.746  -0.830  -4.598  1.00  0.00    -0.226 NA
BRANCH  15  17
HETATM   17  C   UNL     1       0.613  -3.291  -4.034  1.00  0.00     0.017 A 
HETATM   18  C   UNL     1       1.210  -3.767  -5.209  1.00  0.00     0.016 A 
HETATM   19  C   UNL     1       1.391  -5.139  -5.413  1.00  0.00     0.001 A 
HETATM   20  C   UNL     1       0.982  -6.051  -4.442  1.00  0.00     0.000 A 
HETATM   21  C   UNL     1       0.397  -5.596  -3.264  1.00  0.00     0.001 A 
HETATM   22  C   UNL     1       0.215  -4.225  -3.062  1.00  0.00     0.016 A 
ENDBRANCH  15  17
ENDBRANCH  10  11
ENDBRANCH   9  10
ENDBRANCH   8   9
ENDBRANCH   5   8
ENDBRANCH   1   2
BRANCH   1  23
HETATM   23  CA  UNL     1      -3.308   8.339  -0.752  1.00  0.00     0.184 C 
BRANCH  23  24
HETATM   24  C   UNL     1      -4.726   8.872  -1.057  1.00  0.00     0.163 C 
HETATM   25  O   UNL     1      -5.468   8.419  -1.923  1.00  0.00    -0.648 OA
BRANCH  24  26
HETATM   26  OXT UNL     1      -5.124   9.901  -0.272  1.00  0.00    -0.775 OA
HETATM   27  HXT UNL     1      -4.480  10.205   0.395  1.00  0.00     0.167 HD
ENDBRANCH  24  26
ENDBRANCH  23  24
BRANCH  23  28
HETATM   28  N   UNL     1      -3.408   7.003  -0.109  1.00  0.00    -0.375 N 
HETATM   29  H   UNL     1      -4.089   6.928   0.646  1.00  0.00     0.160 HD
BRANCH  28  30
HETATM   30  C   UNL     1      -2.372   6.083  -0.002  1.00  0.00     0.043 A 
HETATM   31  C   UNL     1      -1.046   6.579   0.088  1.00  0.00     0.030 A 
HETATM   32  C   UNL     1       0.075   5.755   0.000  1.00  0.00     0.002 A 
HETATM   33  C   UNL     1      -0.099   4.393  -0.106  1.00  0.00     0.001 A 
HETATM   34  C   UNL     1      -1.393   3.873  -0.099  1.00  0.00     0.018 A 
HETATM   35  C   UNL     1      -2.563   4.678  -0.066  1.00  0.00     0.041 A 
BRANCH  35  36
HETATM   36  C   UNL     1      -3.832   3.842  -0.194  1.00  0.00     0.194 C 
HETATM   37  O   UNL     1      -3.679   2.620  -0.350  1.00  0.00    -0.287 OA
BRANCH  36  38
HETATM   38  C   UNL     1      -5.266   4.246  -0.114  1.00  0.00     0.015 A 
HETATM   39  C   UNL     1      -6.189   3.299   0.369  1.00  0.00     0.015 A 
HETATM   40  C   UNL     1      -7.560   3.581   0.437  1.00  0.00     0.001 A 
HETATM   41  C   UNL     1      -8.033   4.828   0.045  1.00  0.00     0.000 A 
HETATM   42  C   UNL     1      -7.145   5.753  -0.486  1.00  0.00     0.001 A 
HETATM   43  C   UNL     1      -5.788   5.431  -0.612  1.00  0.00     0.015 A 
ENDBRANCH  36  38
ENDBRANCH  35  36
ENDBRANCH  28  30
ENDBRANCH  23  28
ENDBRANCH   1  23
TORSDOF 13
