REMARK  8 active torsions:
REMARK  status: ('A' for Active; 'I' for Inactive)
REMARK    1  A    between atoms: C_2  and  N_3 
REMARK    2  A    between atoms: N_3  and  C_4 
REMARK       I    between atoms: N_3  and  C_7 
REMARK    3  A    between atoms: C_7  and  C_9 
REMARK    4  A    between atoms: C_14  and  O_15 
REMARK    5  A    between atoms: O_15  and  C_16 
REMARK    6  A    between atoms: C_16  and  C_17 
REMARK    7  A    between atoms: C_17  and  N_19 
REMARK    8  A    between atoms: N_19  and  C_20 
ROOT
HETATM    1  C   UNL     1       3.068  -2.474   3.115  1.00  0.00     0.035 A 
HETATM    2  C   UNL     1       3.191  -3.853   3.301  1.00  0.00     0.024 A 
HETATM    3  C   UNL     1       3.713  -4.339   4.496  1.00  0.00    -0.058 A 
HETATM    4  C   UNL     1       3.699  -5.803   4.817  1.00  0.00     0.048 C 
HETATM    5  C   UNL     1       4.154  -3.427   5.464  1.00  0.00     0.043 A 
HETATM    6  C   UNL     1       4.013  -2.050   5.294  1.00  0.00     0.070 A 
HETATM    7  C   UNL     1       3.506  -1.570   4.088  1.00  0.00     0.053 A 
ENDROOT
BRANCH   6   8
HETATM    8  O   UNL     1       4.279  -1.103   6.241  1.00  0.00    -0.349 OA
BRANCH   8   9
HETATM    9  C   UNL     1       4.693  -1.520   7.552  1.00  0.00     0.200 C 
BRANCH   9  10
HETATM   10  C   UNL     1       3.513  -1.762   8.519  1.00  0.00     0.102 C 
HETATM   11  C   UNL     1       3.963  -1.770   9.980  1.00  0.00     0.034 C 
BRANCH  10  12
HETATM   12  N   UNL     1       2.676  -2.932   8.216  1.00  0.00    -0.384 N 
HETATM   13  H   UNL     1       2.053  -2.786   7.423  1.00  0.00     0.160 HD
BRANCH  12  14
HETATM   14  C   UNL     1       2.879  -4.265   8.519  1.00  0.00     0.031 A 
HETATM   15  C   UNL     1       4.103  -4.830   8.864  1.00  0.00     0.048 A 
HETATM   16  C   UNL     1       4.170  -6.186   9.163  1.00  0.00     0.118 A 
HETATM   17  N   UNL     1       3.104  -7.009   9.179  1.00  0.00    -0.273 NA
HETATM   18  C   UNL     1       1.918  -6.446   8.878  1.00  0.00     0.118 A 
HETATM   19  C   UNL     1       1.765  -5.110   8.538  1.00  0.00     0.048 A 
ENDBRANCH  12  14
ENDBRANCH  10  12
ENDBRANCH   9  10
ENDBRANCH   8   9
ENDBRANCH   6   8
BRANCH   1  20
HETATM   20  C   UNL     1       2.523  -1.987   1.846  1.00  0.00     0.254 C 
HETATM   21  N   UNL     1       1.143  -1.861   1.665  1.00  0.00    -0.344 N 
HETATM   22  O   UNL     1       3.353  -1.740   0.965  1.00  0.00    -0.267 OA
BRANCH  21  23
HETATM   23  C   UNL     1       0.716  -1.474   0.316  1.00  0.00     0.122 C 
HETATM   24  C   UNL     1       0.917   0.009   0.042  1.00  0.00     0.026 C 
ENDBRANCH  21  23
BRANCH  21  25
HETATM   25  C   UNL     1       0.066  -2.084   2.663  1.00  0.00     0.079 C 
HETATM   26  C   UNL     1      -0.086  -3.546   3.082  1.00  0.00     0.032 C 
HETATM   27  C   UNL     1       0.125  -1.152   3.872  1.00  0.00     0.032 C 
ENDBRANCH  21  25
ENDBRANCH   1  20
TORSDOF 8
