REMARK  5 active torsions:
REMARK  status: ('A' for Active; 'I' for Inactive)
REMARK       I    between atoms: N_1  and  C_2 
REMARK       I    between atoms: C_2  and  N_4 
REMARK    1  A    between atoms: N_4  and  O_5 
REMARK    2  A    between atoms: N_4  and  C_6 
REMARK    3  A    between atoms: C_11  and  O_12 
REMARK    4  A    between atoms: O_12  and  C_13 
REMARK    5  A    between atoms: C_13  and  C_14 
ROOT
HETATM    1  C   UNL     1       4.624   0.998  -0.043  1.00  0.00     0.179 C 
HETATM    2  C   UNL     1       5.375   2.252  -0.550  1.00  0.00     0.208 C 
HETATM    3  O   UNL     1       5.829   2.026  -1.909  1.00  0.00    -0.348 OA
HETATM    4  C   UNL     1       5.942   0.662  -1.967  1.00  0.00     0.080 A 
HETATM    5  C   UNL     1       6.610  -0.014  -2.969  1.00  0.00     0.074 A 
HETATM    6  C   UNL     1       6.676  -1.408  -2.902  1.00  0.00     0.071 A 
HETATM    7  C   UNL     1       6.081  -2.083  -1.823  1.00  0.00     0.037 A 
HETATM    8  C   UNL     1       5.397  -1.375  -0.824  1.00  0.00     0.015 A 
HETATM    9  C   UNL     1       5.321   0.004  -0.917  1.00  0.00     0.003 A 
ENDROOT
BRANCH   1  10
HETATM   10  N   UNL     1       3.173   1.034  -0.275  1.00  0.00    -0.204 N 
HETATM   11  C   UNL     1       2.352   0.014   0.193  1.00  0.00     0.318 C 
HETATM   12  N   UNL     1       1.020   0.336   0.123  1.00  0.00    -0.252 NA
HETATM   13  O   UNL     1       2.703  -1.064   0.650  1.00  0.00    -0.252 OA
HETATM   14  H   UNL     1       0.424  -0.456   0.335  1.00  0.00     0.128 HD
HETATM   15  H   UNL     1       0.764   0.817  -0.733  1.00  0.00     0.128 HD
BRANCH  10  16
HETATM   16  O   UNL     1       2.623   2.332  -0.032  1.00  0.00    -0.283 OA
HETATM   17  H   UNL     1       1.847   2.135   0.532  1.00  0.00     0.245 HD
ENDBRANCH  10  16
ENDBRANCH   1  10
BRANCH   6  18
HETATM   18  O   UNL     1       7.351  -1.996  -3.938  1.00  0.00    -0.347 OA
BRANCH  18  19
HETATM   19  C   UNL     1       7.330  -3.423  -3.999  1.00  0.00     0.214 C 
BRANCH  19  20
HETATM   20  C   UNL     1       8.001  -3.941  -5.255  1.00  0.00    -0.034 A 
HETATM   21  C   UNL     1       8.619  -3.095  -6.187  1.00  0.00     0.009 A 
HETATM   22  C   UNL     1       9.225  -3.619  -7.331  1.00  0.00     0.001 A 
HETATM   23  C   UNL     1       9.222  -4.993  -7.558  1.00  0.00     0.000 A 
HETATM   24  C   UNL     1       8.615  -5.847  -6.641  1.00  0.00     0.001 A 
HETATM   25  C   UNL     1       8.009  -5.325  -5.496  1.00  0.00     0.009 A 
ENDBRANCH  19  20
ENDBRANCH  18  19
ENDBRANCH   6  18
TORSDOF 5
