REMARK  6 active torsions:
REMARK  status: ('A' for Active; 'I' for Inactive)
REMARK       I    between atoms: N_1  and  C_2 
REMARK    1  A    between atoms: C_2  and  C_4 
REMARK    2  A    between atoms: C_4  and  N_5 
REMARK    3  A    between atoms: N_5  and  C_6 
REMARK    4  A    between atoms: N_5  and  C_11 
REMARK    5  A    between atoms: C_6  and  C_7 
REMARK    6  A    between atoms: C_17  and  C_19 
ROOT
HETATM    1  C   UNL     1       5.314   0.938  -1.832  1.00  0.00     0.012 A 
HETATM    2  C   UNL     1       5.344   2.341  -1.882  1.00  0.00     0.025 A 
HETATM    3  C   UNL     1       6.143   3.014  -2.814  1.00  0.00     0.025 A 
HETATM    4  C   UNL     1       6.945   2.297  -3.708  1.00  0.00     0.059 A 
HETATM    5  C   UNL     1       7.696   3.023  -4.699  1.00  0.00     0.100 C 
HETATM    6  N   UNL     1       8.282   3.611  -5.504  1.00  0.00    -0.191 NA
HETATM    7  C   UNL     1       6.979   0.895  -3.636  1.00  0.00     0.070 A 
HETATM    8  C   UNL     1       6.166   0.235  -2.692  1.00  0.00     0.041 A 
ENDROOT
BRANCH   7   9
HETATM    9  C   UNL     1       7.832   0.089  -4.581  1.00  0.00     0.419 C 
HETATM   10  F   UNL     1       7.402   0.183  -5.867  1.00  0.00    -0.166 F 
HETATM   11  F   UNL     1       9.134   0.478  -4.577  1.00  0.00    -0.166 F 
HETATM   12  F   UNL     1       7.846  -1.242  -4.290  1.00  0.00    -0.166 F 
ENDBRANCH   7   9
BRANCH   1  13
HETATM   13  N   UNL     1       4.469   0.186  -0.950  1.00  0.00    -0.266 NA
BRANCH  13  14
HETATM   14  C   UNL     1       3.112   0.790  -0.885  1.00  0.00     0.198 C 
BRANCH  14  15
HETATM   15  C   UNL     1       1.976   0.038  -0.189  1.00  0.00     0.228 C 
HETATM   16  N   UNL     1       0.714   0.393  -0.593  1.00  0.00    -0.369 N 
HETATM   17  H   UNL     1      -0.050  -0.099  -0.145  1.00  0.00     0.159 HD
HETATM   18  H   UNL     1       0.523   0.893  -1.449  1.00  0.00     0.159 HD
HETATM   19  O   UNL     1       2.080  -0.761   0.729  1.00  0.00    -0.272 OA
ENDBRANCH  14  15
ENDBRANCH  13  14
BRANCH  13  20
HETATM   20  C   UNL     1       5.282  -0.172   0.266  1.00  0.00     0.213 C 
BRANCH  20  21
HETATM   21  C   UNL     1       4.739  -1.037   1.413  1.00  0.00     0.399 C 
HETATM   22  F   UNL     1       3.962  -0.324   2.256  1.00  0.00    -0.170 F 
HETATM   23  F   UNL     1       4.102  -2.147   0.994  1.00  0.00    -0.170 F 
HETATM   24  F   UNL     1       5.793  -1.472   2.163  1.00  0.00    -0.170 F 
ENDBRANCH  20  21
ENDBRANCH  13  20
ENDBRANCH   1  13
TORSDOF 6
