REMARK  7 active torsions:
REMARK  status: ('A' for Active; 'I' for Inactive)
REMARK    1  A    between atoms: C_4  and  C_7 
REMARK    2  A    between atoms: N_13  and  C_14 
REMARK    3  A    between atoms: C_14  and  C_15 
REMARK    4  A    between atoms: C_15  and  C_16 
REMARK    5  A    between atoms: C_19  and  N_22 
REMARK       I    between atoms: N_22  and  C_23 
REMARK    6  A    between atoms: C_23  and  C_25 
REMARK    7  A    between atoms: C_26  and  C_27 
ROOT
HETATM    1  C   UNL     1      13.087  -5.023  -4.218  1.00  0.00    -0.013 C 
HETATM    2  C   UNL     1      12.644  -3.938  -5.209  1.00  0.00     0.007 C 
HETATM    3  C   UNL     1      11.264  -4.236  -5.793  1.00  0.00     0.025 C 
HETATM    4  C   UNL     1      11.248  -5.574  -6.542  1.00  0.00     0.084 C 
HETATM    5  C   UNL     1      11.768  -6.713  -5.651  1.00  0.00     0.025 C 
HETATM    6  C   UNL     1      13.098  -6.385  -4.947  1.00  0.00     0.007 C 
ENDROOT
BRANCH   1   7
HETATM    7  C   UNL     1      12.236  -5.108  -2.923  1.00  0.00     0.034 C 
BRANCH   7   8
HETATM    8  C   UNL     1      11.706  -3.762  -2.400  1.00  0.00     0.272 C 
BRANCH   8   9
HETATM    9  N   UNL     1      10.827  -3.801  -1.201  1.00  0.00     0.089 N 
HETATM   10  C   UNL     1       9.741  -4.795  -1.355  1.00  0.00     0.277 C 
HETATM   11  C   UNL     1       8.816  -4.982  -0.141  1.00  0.00     0.069 C 
HETATM   12  C   UNL     1       7.728  -3.944  -0.068  1.00  0.00    -0.050 A 
HETATM   13  C   UNL     1       6.385  -4.324  -0.199  1.00  0.00     0.009 A 
HETATM   14  C   UNL     1       8.049  -2.591   0.113  1.00  0.00    -0.049 A 
HETATM   15  C   UNL     1       5.372  -3.365  -0.171  1.00  0.00     0.016 A 
HETATM   16  C   UNL     1       5.677  -2.008  -0.014  1.00  0.00     0.015 A 
HETATM   17  C   UNL     1       7.021  -1.633   0.134  1.00  0.00     0.023 A 
HETATM   18  C   UNL     1       9.490  -2.165   0.257  1.00  0.00     0.069 C 
HETATM   19  C   UNL     1      10.303  -2.421  -1.017  1.00  0.00     0.277 C 
BRANCH  16  20
HETATM   20  C   UNL     1       4.608  -1.015  -0.014  1.00  0.00     0.189 A 
HETATM   21  N   UNL     1       3.276  -1.373  -0.063  1.00  0.00    -0.204 NA
HETATM   22  C   UNL     1       2.668  -0.212  -0.051  1.00  0.00     0.169 A 
HETATM   23  C   UNL     1       1.229   0.096  -0.077  1.00  0.00     0.102 C 
HETATM   24  O   UNL     1       3.523   0.847  -0.005  1.00  0.00    -0.196 OA
HETATM   25  N   UNL     1       4.811   0.314   0.021  1.00  0.00    -0.106 NA
ENDBRANCH  16  20
ENDBRANCH   8   9
ENDBRANCH   7   8
ENDBRANCH   1   7
BRANCH   4  26
HETATM   26  N   UNL     1      12.011  -5.491  -7.779  1.00  0.00    -0.353 N 
HETATM   27  C   UNL     1      11.590  -4.699  -8.820  1.00  0.00     0.241 C 
HETATM   28  O   UNL     1      10.533  -4.082  -8.842  1.00  0.00    -0.269 OA
HETATM   29  H   UNL     1      12.941  -5.886  -7.800  1.00  0.00     0.163 HD
BRANCH  27  30
HETATM   30  C   UNL     1      12.567  -4.645  -9.930  1.00  0.00     0.075 C 
HETATM   31  C   UNL     1      12.410  -3.721 -10.890  1.00  0.00     0.017 C 
BRANCH  31  32
HETATM   32  C   UNL     1      13.264  -3.628 -12.079  1.00  0.00    -0.036 A 
HETATM   33  C   UNL     1      13.567  -2.365 -12.605  1.00  0.00     0.014 A 
HETATM   34  C   UNL     1      14.311  -2.251 -13.782  1.00  0.00     0.043 A 
HETATM   35  C   UNL     1      14.742  -3.400 -14.434  1.00  0.00     0.116 A 
HETATM   36  F   UNL     1      15.441  -3.291 -15.571  1.00  0.00    -0.206 F 
HETATM   37  C   UNL     1      14.447  -4.660 -13.932  1.00  0.00     0.043 A 
HETATM   38  C   UNL     1      13.704  -4.775 -12.756  1.00  0.00     0.014 A 
ENDBRANCH  31  32
ENDBRANCH  27  30
ENDBRANCH   4  26
TORSDOF 7
