REMARK  9 active torsions:
REMARK  status: ('A' for Active; 'I' for Inactive)
REMARK    1  A    between atoms: O_1  and  C_2 
REMARK    2  A    between atoms: C_2  and  C_3 
REMARK    3  A    between atoms: C_3  and  C_4 
REMARK    4  A    between atoms: C_3  and  N_6 
REMARK    5  A    between atoms: C_4  and  O_5 
REMARK    6  A    between atoms: C_9  and  C_24 
REMARK    7  A    between atoms: C_10  and  C_11 
REMARK    8  A    between atoms: C_15  and  O_16 
REMARK    9  A    between atoms: O_16  and  C_17 
ROOT
HETATM    1  N   UNL     1       4.418  -1.002  -1.182  1.00  0.00    -0.329 N 
HETATM    2  C   UNL     1       5.347   0.004  -1.194  1.00  0.00     0.211 A 
HETATM    3  N   UNL     1       6.563  -0.456  -1.097  1.00  0.00    -0.241 NA
HETATM    4  C   UNL     1       6.441  -1.827  -1.051  1.00  0.00     0.097 A 
HETATM    5  C   UNL     1       5.101  -2.213  -1.141  1.00  0.00     0.095 A 
ENDROOT
BRANCH   5   6
HETATM    6  C   UNL     1       4.468  -3.531  -1.241  1.00  0.00     0.091 A 
HETATM    7  C   UNL     1       4.950  -4.513  -2.083  1.00  0.00     0.053 A 
HETATM    8  C   UNL     1       4.314  -5.729  -2.013  1.00  0.00     0.123 A 
HETATM    9  N   UNL     1       3.258  -5.969  -1.219  1.00  0.00    -0.219 NA
HETATM   10  C   UNL     1       2.826  -4.932  -0.484  1.00  0.00     0.274 A 
HETATM   11  N   UNL     1       3.416  -3.723  -0.425  1.00  0.00    -0.205 NA
BRANCH  10  12
HETATM   12  O   UNL     1       1.768  -5.216   0.370  1.00  0.00    -0.277 OA
BRANCH  12  13
HETATM   13  C   UNL     1       0.718  -4.328   0.348  1.00  0.00     0.079 A 
HETATM   14  C   UNL     1      -0.511  -4.780  -0.139  1.00  0.00     0.037 A 
HETATM   15  C   UNL     1      -1.623  -3.936  -0.119  1.00  0.00     0.003 A 
HETATM   16  C   UNL     1      -1.509  -2.645   0.397  1.00  0.00     0.000 A 
HETATM   17  C   UNL     1      -0.290  -2.208   0.914  1.00  0.00     0.003 A 
HETATM   18  C   UNL     1       0.819  -3.055   0.906  1.00  0.00     0.037 A 
ENDBRANCH  12  13
ENDBRANCH  10  12
ENDBRANCH   5   6
BRANCH   1  19
HETATM   19  C   UNL     1       2.982  -0.767  -1.289  1.00  0.00     0.138 C 
BRANCH  19  20
HETATM   20  C   UNL     1       2.498   0.292  -0.278  1.00  0.00     0.192 C 
BRANCH  20  21
HETATM   21  O   UNL     1       1.088   0.487  -0.377  1.00  0.00    -0.399 OA
HETATM   22  H   UNL     1       0.853   1.176   0.273  1.00  0.00     0.209 HD
ENDBRANCH  20  21
ENDBRANCH  19  20
BRANCH  19  23
HETATM   23  C   UNL     1       2.573  -0.409  -2.726  1.00  0.00     0.192 C 
BRANCH  23  24
HETATM   24  O   UNL     1       1.179  -0.621  -2.945  1.00  0.00    -0.399 OA
HETATM   25  H   UNL     1       0.712  -0.373  -2.118  1.00  0.00     0.209 HD
ENDBRANCH  23  24
ENDBRANCH  19  23
ENDBRANCH   1  19
BRANCH   4  26
HETATM   26  C   UNL     1       7.639  -2.659  -0.995  1.00  0.00    -0.005 A 
HETATM   27  C   UNL     1       8.828  -2.149  -1.550  1.00  0.00     0.017 A 
HETATM   28  C   UNL     1      10.000  -2.908  -1.564  1.00  0.00     0.043 A 
HETATM   29  C   UNL     1       9.988  -4.184  -1.022  1.00  0.00     0.116 A 
HETATM   30  F   UNL     1      11.101  -4.927  -1.057  1.00  0.00    -0.206 F 
HETATM   31  C   UNL     1       8.837  -4.699  -0.437  1.00  0.00     0.043 A 
HETATM   32  C   UNL     1       7.669  -3.929  -0.402  1.00  0.00     0.017 A 
ENDBRANCH   4  26
TORSDOF 9
