REMARK  4 active torsions:
REMARK  status: ('A' for Active; 'I' for Inactive)
REMARK    1  A    between atoms: C_2  and  N_3 
REMARK       I    between atoms: N_14  and  C_15 
REMARK    2  A    between atoms: C_15  and  C_17 
REMARK    3  A    between atoms: C_20  and  C_23 
REMARK    4  A    between atoms: C_26  and  C_30 
ROOT
HETATM    1  N   UNL     1       3.189  -1.102  -0.210  1.00  0.00     0.088 N 
HETATM    2  C   UNL     1       4.128  -1.067   0.908  1.00  0.00     0.273 C 
HETATM    3  C   UNL     1       5.210  -0.020   0.691  1.00  0.00     0.047 C 
HETATM    4  C   UNL     1       6.037  -0.276  -0.615  1.00  0.00     0.015 C 
HETATM    5  C   UNL     1       7.052  -1.402  -0.352  1.00  0.00     0.190 C 
HETATM    6  O   UNL     1       8.006  -0.852   0.607  1.00  0.00    -0.349 OA
HETATM    7  C   UNL     1       8.010   0.492   0.290  1.00  0.00     0.076 C 
HETATM    8  C   UNL     1       8.516   1.477   1.104  1.00  0.00     0.046 C 
HETATM    9  C   UNL     1       8.175   2.764   0.727  1.00  0.00    -0.033 C 
HETATM   10  C   UNL     1       7.820   3.924   1.626  1.00  0.00     0.056 C 
HETATM   11  C   UNL     1       7.068   4.846   0.632  1.00  0.00     0.109 C 
HETATM   12  N   UNL     1       7.605   4.488  -0.692  1.00  0.00    -0.215 NA
HETATM   13  C   UNL     1       8.805   5.159  -1.080  1.00  0.00     0.237 C 
HETATM   14  O   UNL     1       9.815   4.606  -1.509  1.00  0.00    -0.273 OA
HETATM   15  C   UNL     1       7.736   3.071  -0.569  1.00  0.00     0.025 C 
HETATM   16  C   UNL     1       7.019   2.102  -1.253  1.00  0.00     0.035 C 
HETATM   17  C   UNL     1       7.076   0.822  -0.703  1.00  0.00    -0.012 C 
HETATM   18  C   UNL     1       5.089  -0.471  -1.796  1.00  0.00     0.047 C 
HETATM   19  C   UNL     1       3.900  -1.398  -1.466  1.00  0.00     0.273 C 
ENDROOT
BRANCH  13  20
HETATM   20  C   UNL     1       8.840   6.647  -1.038  1.00  0.00     0.026 A 
HETATM   21  C   UNL     1       8.782   7.332  -2.245  1.00  0.00     0.017 A 
HETATM   22  C   UNL     1       8.892   8.733  -2.273  1.00  0.00     0.013 A 
HETATM   23  C   UNL     1       8.996   9.518  -1.108  1.00  0.00    -0.025 A 
HETATM   24  C   UNL     1       9.116   8.781   0.094  1.00  0.00     0.013 A 
HETATM   25  C   UNL     1       9.084   7.371   0.128  1.00  0.00     0.017 A 
BRANCH  23  26
HETATM   26  C   UNL     1       9.011  11.030  -1.125  1.00  0.00    -0.020 A 
HETATM   27  C   UNL     1       9.673  11.730  -0.085  1.00  0.00     0.014 A 
HETATM   28  C   UNL     1       9.714  13.134  -0.003  1.00  0.00     0.017 A 
HETATM   29  C   UNL     1       9.100  13.922  -0.971  1.00  0.00     0.019 A 
HETATM   30  C   UNL     1       8.451  13.268  -2.018  1.00  0.00     0.023 A 
HETATM   31  C   UNL     1       8.382  11.850  -2.106  1.00  0.00    -0.050 A 
HETATM   32  C   UNL     1       7.637  11.330  -3.310  1.00  0.00     0.049 C 
BRANCH  29  33
HETATM   33  C   UNL     1       9.152  15.376  -0.888  1.00  0.00     0.202 A 
HETATM   34  N   UNL     1      10.037  16.164  -0.312  1.00  0.00    -0.121 NA
HETATM   35  N   UNL     1       9.585  17.458  -0.480  1.00  0.00    -0.127 NA
HETATM   36  C   UNL     1       8.443  17.368  -1.127  1.00  0.00     0.165 A 
HETATM   37  C   UNL     1       7.494  18.429  -1.506  1.00  0.00     0.102 C 
HETATM   38  O   UNL     1       8.105  16.077  -1.437  1.00  0.00    -0.273 OA
ENDBRANCH  29  33
ENDBRANCH  23  26
ENDBRANCH  13  20
BRANCH   1  39
HETATM   39  C   UNL     1       2.364   0.114  -0.259  1.00  0.00     0.268 C 
HETATM   40  C   UNL     1       0.890  -0.258  -0.302  1.00  0.00     0.037 C 
ENDBRANCH   1  39
TORSDOF 4
