REMARK  7 active torsions:
REMARK  status: ('A' for Active; 'I' for Inactive)
REMARK    1  A    between atoms: C_2  and  C_7 
REMARK    2  A    between atoms: C_6  and  C_13 
REMARK    3  A    between atoms: C_8  and  O_18 
REMARK    4  A    between atoms: C_17  and  C_28 
REMARK    5  A    between atoms: O_18  and  C_19 
REMARK    6  A    between atoms: C_19  and  C_20 
REMARK    7  A    between atoms: C_20  and  C_22 
REMARK       I    between atoms: C_28  and  N_29 
ROOT
HETATM    1  C   UNL     1      -0.596  -0.359   0.917  1.00  0.00     0.012 C 
HETATM    2  C   UNL     1      -0.143  -1.365   0.055  1.00  0.00    -0.022 C 
HETATM    3  C   UNL     1       0.088   0.846   1.076  1.00  0.00     0.002 C 
HETATM    4  C   UNL     1       1.174  -1.228  -0.439  1.00  0.00     0.028 C 
HETATM    5  C   UNL     1       1.331   1.008   0.489  1.00  0.00     0.015 C 
HETATM    6  C   UNL     1       1.918  -0.062  -0.190  1.00  0.00     0.014 C 
ENDROOT
BRANCH   2   7
HETATM    7  C   UNL     1      -0.971  -2.569  -0.213  1.00  0.00     0.010 A 
HETATM    8  C   UNL     1      -2.305  -2.616  -0.701  1.00  0.00     0.080 A 
HETATM    9  C   UNL     1      -2.929  -3.877  -0.879  1.00  0.00     0.040 A 
HETATM   10  C   UNL     1      -2.286  -5.076  -0.593  1.00  0.00     0.045 A 
HETATM   11  C   UNL     1      -0.996  -5.032  -0.111  1.00  0.00     0.117 A 
HETATM   12  C   UNL     1      -0.350  -3.814   0.077  1.00  0.00     0.057 A 
HETATM   13  F   UNL     1      -0.364  -6.175   0.185  1.00  0.00    -0.206 F 
BRANCH   8  14
HETATM   14  O   UNL     1      -3.206  -1.661  -1.078  1.00  0.00    -0.344 OA
BRANCH  14  15
HETATM   15  C   UNL     1      -2.998  -0.253  -1.143  1.00  0.00     0.264 C 
BRANCH  15  16
HETATM   16  C   UNL     1      -3.751   0.455  -0.013  1.00  0.00     0.360 C 
HETATM   17  F   UNL     1      -3.471  -0.127   1.185  1.00  0.00    -0.194 F 
HETATM   18  F   UNL     1      -5.099   0.281  -0.172  1.00  0.00    -0.194 F 
BRANCH  16  19
HETATM   19  C   UNL     1      -3.429   1.947   0.029  1.00  0.00     0.456 C 
HETATM   20  F   UNL     1      -4.099   2.626  -0.936  1.00  0.00    -0.165 F 
HETATM   21  F   UNL     1      -3.780   2.504   1.215  1.00  0.00    -0.165 F 
HETATM   22  F   UNL     1      -2.118   2.211  -0.158  1.00  0.00    -0.165 F 
ENDBRANCH  16  19
ENDBRANCH  15  16
ENDBRANCH  14  15
ENDBRANCH   8  14
ENDBRANCH   2   7
BRANCH   6  23
HETATM   23  C   UNL     1       3.376   0.057  -0.557  1.00  0.00     0.184 A 
HETATM   24  N   UNL     1       4.197  -0.947  -0.939  1.00  0.00    -0.127 NA
HETATM   25  N   UNL     1       5.476  -0.439  -0.953  1.00  0.00    -0.122 NA
HETATM   26  C   UNL     1       5.380   0.891  -0.699  1.00  0.00     0.241 A 
HETATM   27  N   UNL     1       4.075   1.205  -0.464  1.00  0.00    -0.201 NA
BRANCH  26  28
HETATM   28  C   UNL     1       6.465   1.892  -0.702  1.00  0.00     0.289 C 
HETATM   29  N   UNL     1       5.918   3.149  -0.496  1.00  0.00    -0.363 N 
HETATM   30  H   UNL     1       6.478   3.970  -0.627  1.00  0.00     0.159 HD
HETATM   31  H   UNL     1       4.899   3.171  -0.470  1.00  0.00     0.159 HD
HETATM   32  O   UNL     1       7.689   1.814  -0.869  1.00  0.00    -0.264 OA
ENDBRANCH  26  28
ENDBRANCH   6  23
TORSDOF 7
