REMARK  4 active torsions:
REMARK  status: ('A' for Active; 'I' for Inactive)
REMARK    1  A    between atoms: C_1  and  N_14 
REMARK    2  A    between atoms: C_6  and  O_13 
REMARK    3  A    between atoms: C_8  and  O_13 
REMARK       I    between atoms: N_14  and  C_15 
REMARK       I    between atoms: C_15  and  N_17 
REMARK    4  A    between atoms: C_23  and  C_27 
ROOT
HETATM    1  N   UNL     1      -3.748   0.608  -0.724  1.00  0.00    -0.307 N 
HETATM    2  C   UNL     1      -4.510   1.683  -1.182  1.00  0.00     0.327 C 
HETATM    3  O   UNL     1      -4.200   2.397  -2.116  1.00  0.00    -0.246 OA
HETATM    4  N   UNL     1      -5.622   1.895  -0.330  1.00  0.00    -0.299 N 
HETATM    5  C   UNL     1      -6.471   3.019  -0.452  1.00  0.00     0.046 C 
HETATM    6  C   UNL     1      -5.504   1.593   1.114  1.00  0.00     0.138 C 
HETATM    7  C   UNL     1      -6.793   3.502   0.814  1.00  0.00    -0.029 C 
HETATM    8  C   UNL     1      -6.483   2.491   1.862  1.00  0.00     0.061 C 
HETATM    9  C   UNL     1      -6.984   3.633  -1.578  1.00  0.00     0.047 C 
HETATM   10  C   UNL     1      -7.730   4.821  -1.411  1.00  0.00     0.056 C 
HETATM   11  C   UNL     1      -7.326   4.765   0.982  1.00  0.00     0.017 C 
HETATM   12  C   UNL     1      -7.701   5.483  -0.157  1.00  0.00    -0.046 C 
HETATM   13  C   UNL     1      -8.018   6.949  -0.032  1.00  0.00     0.049 C 
HETATM   14  H   UNL     1      -4.280  -0.124  -0.281  1.00  0.00     0.170 HD
ENDROOT
BRANCH   1  15
HETATM   15  C   UNL     1      -2.346   0.491  -0.697  1.00  0.00     0.054 A 
HETATM   16  C   UNL     1      -1.444   1.399  -1.228  1.00  0.00     0.149 A 
HETATM   17  N   UNL     1      -0.093   1.272  -1.115  1.00  0.00    -0.235 NA
HETATM   18  C   UNL     1       0.403   0.217  -0.424  1.00  0.00     0.169 A 
HETATM   19  C   UNL     1      -0.424  -0.689   0.213  1.00  0.00     0.060 A 
HETATM   20  C   UNL     1      -1.807  -0.576   0.030  1.00  0.00     0.035 A 
BRANCH  18  21
HETATM   21  O   UNL     1       1.769   0.234  -0.327  1.00  0.00    -0.290 OA
BRANCH  21  22
HETATM   22  C   UNL     1       2.569  -0.875  -0.202  1.00  0.00     0.102 A 
HETATM   23  C   UNL     1       2.421  -2.161  -0.729  1.00  0.00     0.064 A 
HETATM   24  N   UNL     1       3.383  -3.121  -0.579  1.00  0.00    -0.263 NA
HETATM   25  C   UNL     1       1.240  -2.646  -1.509  1.00  0.00     0.073 C 
HETATM   26  C   UNL     1       4.542  -2.789   0.026  1.00  0.00     0.117 A 
HETATM   27  C   UNL     1       4.796  -1.536   0.535  1.00  0.00     0.022 A 
HETATM   28  C   UNL     1       3.792  -0.578   0.424  1.00  0.00     0.041 A 
ENDBRANCH  21  22
ENDBRANCH  18  21
ENDBRANCH   1  15
BRANCH  10  29
HETATM   29  C   UNL     1      -8.616   5.321  -2.533  1.00  0.00     0.418 C 
HETATM   30  F   UNL     1      -9.719   5.990  -2.083  1.00  0.00    -0.166 F 
HETATM   31  F   UNL     1      -7.992   6.166  -3.393  1.00  0.00    -0.166 F 
HETATM   32  F   UNL     1      -9.121   4.304  -3.293  1.00  0.00    -0.166 F 
ENDBRANCH  10  29
TORSDOF 4
