REMARK  12 active torsions:
REMARK  status: ('A' for Active; 'I' for Inactive)
REMARK    1  A    between atoms: C_1  and  O_5 
REMARK    2  A    between atoms: C_1  and  C_2 
REMARK    3  A    between atoms: C_2  and  C_6 
REMARK    4  A    between atoms: C_2  and  N_4 
REMARK    5  A    between atoms: N_4  and  C_9 
REMARK    6  A    between atoms: C_11  and  C_14 
REMARK    7  A    between atoms: C_12  and  C_39 
REMARK    8  A    between atoms: C_14  and  N_15 
REMARK    9  A    between atoms: C_20  and  C_24 
REMARK   10  A    between atoms: N_22  and  C_33 
REMARK   11  A    between atoms: C_25  and  C_26 
REMARK   12  A    between atoms: C_26  and  C_27 
ROOT
HETATM    1  C   UNL     1       0.615  -0.983   1.108  1.00  0.00     0.080 C 
HETATM    2  C   UNL     1      -0.909  -0.921   1.062  1.00  0.00     0.032 C 
HETATM    3  C   UNL     1      -1.437  -0.879   2.502  1.00  0.00     0.024 C 
HETATM    4  C   UNL     1      -0.236  -0.445   3.396  1.00  0.00     0.026 C 
HETATM    5  C   UNL     1       0.898  -0.141   2.370  1.00  0.00     0.034 C 
ENDROOT
BRANCH   3   6
HETATM    6  C   UNL     1      -2.726  -0.007   2.613  1.00  0.00     0.277 C 
BRANCH   6   7
HETATM    7  N   UNL     1      -2.690   1.246   1.852  1.00  0.00     0.088 N 
HETATM    8  C   UNL     1      -1.710   2.221   2.309  1.00  0.00     0.273 C 
HETATM    9  C   UNL     1      -2.141   2.981   3.550  1.00  0.00     0.041 C 
HETATM   10  C   UNL     1      -3.404   3.781   3.258  1.00  0.00     0.041 C 
HETATM   11  C   UNL     1      -4.485   2.844   2.674  1.00  0.00     0.041 C 
HETATM   12  C   UNL     1      -3.998   1.859   1.602  1.00  0.00     0.273 C 
BRANCH  10  13
HETATM   13  C   UNL     1      -3.064   4.958   2.380  1.00  0.00     0.036 C 
HETATM   14  N   UNL     1      -2.775   6.248   2.763  1.00  0.00    -0.274 N 
HETATM   15  N   UNL     1      -2.650   7.083   1.690  1.00  0.00    -0.177 NA
HETATM   16  C   UNL     1      -2.659   6.284   0.612  1.00  0.00     0.061 C 
HETATM   17  C   UNL     1      -2.808   4.956   1.026  1.00  0.00     0.056 C 
BRANCH  14  18
HETATM   18  C   UNL     1      -2.391   6.806   4.051  1.00  0.00     0.146 C 
HETATM   19  C   UNL     1      -2.689   6.051   5.337  1.00  0.00     0.028 C 
ENDBRANCH  14  18
BRANCH  16  20
HETATM   20  C   UNL     1      -2.492   6.852  -0.776  1.00  0.00     0.099 C 
BRANCH  20  21
HETATM   21  C   UNL     1      -2.617   5.794  -1.873  1.00  0.00    -0.052 C 
HETATM   22  C   UNL     1      -3.552   4.743  -1.868  1.00  0.00     0.007 C 
HETATM   23  C   UNL     1      -3.524   3.735  -2.836  1.00  0.00     0.001 C 
HETATM   24  C   UNL     1      -2.658   3.834  -3.917  1.00  0.00     0.000 C 
HETATM   25  C   UNL     1      -1.830   4.947  -4.029  1.00  0.00     0.001 C 
HETATM   26  C   UNL     1      -1.800   5.909  -3.013  1.00  0.00     0.007 C 
ENDBRANCH  20  21
ENDBRANCH  16  20
ENDBRANCH  10  13
ENDBRANCH   6   7
ENDBRANCH   3   6
BRANCH   4  27
HETATM   27  C   UNL     1       0.170  -1.411   4.506  1.00  0.00    -0.051 C 
HETATM   28  C   UNL     1      -0.714  -2.345   5.072  1.00  0.00     0.007 C 
HETATM   29  C   UNL     1      -0.275  -3.264   6.035  1.00  0.00     0.004 C 
HETATM   30  C   UNL     1       1.039  -3.226   6.493  1.00  0.00     0.042 C 
HETATM   31  C   UNL     1       1.885  -2.234   6.028  1.00  0.00     0.116 C 
HETATM   32  C   UNL     1       1.456  -1.323   5.069  1.00  0.00     0.049 C 
HETATM   33  F   UNL     1       3.132  -2.143   6.508  1.00  0.00    -0.206 F 
ENDBRANCH   4  27
BRANCH   1  34
HETATM   34  N   UNL     1       1.460  -2.167   1.205  1.00  0.00    -0.399 N 
HETATM   35  C   UNL     1       2.786  -1.895   0.615  1.00  0.00     0.144 C 
BRANCH  34  36
HETATM   36  C   UNL     1       1.105  -3.587   1.045  1.00  0.00     0.181 C 
BRANCH  36  37
HETATM   37  C   UNL     1       1.572  -4.310   2.341  1.00  0.00     0.163 C 
HETATM   38  O   UNL     1       2.724  -4.662   2.541  1.00  0.00    -0.648 OA
BRANCH  37  39
HETATM   39  O   UNL     1       0.611  -4.503   3.270  1.00  0.00    -0.775 OA
HETATM   40  H   UNL     1      -0.199  -4.000   3.081  1.00  0.00     0.167 HD
ENDBRANCH  37  39
ENDBRANCH  36  37
BRANCH  36  41
HETATM   41  C   UNL     1      -0.298  -3.998   0.537  1.00  0.00     0.010 C 
HETATM   42  C   UNL     1      -0.487  -3.556  -0.925  1.00  0.00     0.012 C 
HETATM   43  C   UNL     1      -0.542  -5.514   0.585  1.00  0.00     0.012 C 
ENDBRANCH  36  41
ENDBRANCH  34  36
ENDBRANCH   1  34
TORSDOF 12
