REMARK  7 active torsions:
REMARK  status: ('A' for Active; 'I' for Inactive)
REMARK       I    between atoms: N_2  and  C_7 
REMARK    1  A    between atoms: C_3  and  C_21 
REMARK    2  A    between atoms: C_3  and  C_15 
REMARK    3  A    between atoms: C_7  and  C_9 
REMARK    4  A    between atoms: C_21  and  C_22 
REMARK    5  A    between atoms: C_22  and  N_23 
REMARK    6  A    between atoms: C_28  and  N_29 
REMARK    7  A    between atoms: C_28  and  C_30 
REMARK       I    between atoms: N_29  and  C_36 
REMARK       I    between atoms: C_36  and  N_37 
ROOT
HETATM    1  C   UNL     1       0.272   1.213  -0.350  1.00  0.00     0.169 C 
HETATM    2  N   UNL     1       1.214   0.195   0.138  1.00  0.00    -0.343 N 
HETATM    3  C   UNL     1      -1.180   0.979   0.209  1.00  0.00     0.106 C 
HETATM    4  C   UNL     1       0.763  -1.159  -0.227  1.00  0.00     0.152 C 
HETATM    5  O   UNL     1      -1.579  -0.371  -0.203  1.00  0.00    -0.372 OA
HETATM    6  C   UNL     1      -0.682  -1.414   0.206  1.00  0.00     0.189 C 
HETATM    7  C   UNL     1       2.427   0.295   0.831  1.00  0.00     0.254 C 
HETATM    8  O   UNL     1       2.972  -0.743   1.229  1.00  0.00    -0.267 OA
ENDROOT
BRANCH   3   9
HETATM    9  C   UNL     1      -1.236   0.981   1.789  1.00  0.00     0.075 C 
BRANCH   9  10
HETATM   10  C   UNL     1      -1.220   2.317   2.538  1.00  0.00     0.276 C 
BRANCH  10  11
HETATM   11  N   UNL     1      -0.765   2.219   3.927  1.00  0.00     0.088 N 
HETATM   12  C   UNL     1      -1.480   3.058   4.899  1.00  0.00     0.275 C 
HETATM   13  C   UNL     1      -1.151   4.559   4.916  1.00  0.00     0.066 C 
HETATM   14  C   UNL     1       0.372   4.870   4.848  1.00  0.00     0.065 C 
HETATM   15  C   UNL     1       1.117   3.885   3.920  1.00  0.00     0.066 C 
HETATM   16  C   UNL     1       0.677   2.417   4.059  1.00  0.00     0.275 C 
BRANCH  14  17
HETATM   17  N   UNL     1       0.641   6.277   4.385  1.00  0.00    -0.329 N 
HETATM   18  C   UNL     1       0.476   7.140   3.370  1.00  0.00     0.318 C 
HETATM   19  N   UNL     1      -0.210   6.915   2.216  1.00  0.00    -0.343 N 
HETATM   20  O   UNL     1       1.032   8.231   3.562  1.00  0.00    -0.247 OA
HETATM   21  C   UNL     1      -0.284   7.991   1.228  1.00  0.00     0.154 C 
HETATM   22  C   UNL     1      -0.892   5.735   1.768  1.00  0.00     0.154 C 
HETATM   23  H   UNL     1       1.247   6.764   5.035  1.00  0.00     0.165 HD
ENDBRANCH  14  17
BRANCH  14  24
HETATM   24  C   UNL     1       0.915   4.772   6.321  1.00  0.00    -0.030 A 
HETATM   25  C   UNL     1       1.849   3.809   6.749  1.00  0.00     0.010 A 
HETATM   26  C   UNL     1       2.158   3.633   8.101  1.00  0.00     0.001 A 
HETATM   27  C   UNL     1       1.592   4.462   9.058  1.00  0.00     0.000 A 
HETATM   28  C   UNL     1       0.748   5.492   8.659  1.00  0.00     0.001 A 
HETATM   29  C   UNL     1       0.418   5.650   7.308  1.00  0.00     0.010 A 
ENDBRANCH  14  24
ENDBRANCH  10  11
ENDBRANCH   9  10
ENDBRANCH   3   9
BRANCH   3  30
HETATM   30  C   UNL     1      -2.146   1.921  -0.561  1.00  0.00    -0.019 A 
HETATM   31  C   UNL     1      -2.549   3.192  -0.114  1.00  0.00     0.013 A 
HETATM   32  C   UNL     1      -3.417   4.017  -0.842  1.00  0.00     0.046 A 
HETATM   33  C   UNL     1      -3.883   3.597  -2.071  1.00  0.00     0.154 A 
HETATM   34  C   UNL     1      -3.478   2.373  -2.575  1.00  0.00     0.155 A 
HETATM   35  F   UNL     1      -4.709   4.390  -2.766  1.00  0.00    -0.203 F 
HETATM   36  C   UNL     1      -2.621   1.547  -1.838  1.00  0.00     0.055 A 
HETATM   37  F   UNL     1      -3.899   1.974  -3.782  1.00  0.00    -0.203 F 
ENDBRANCH   3  30
BRANCH   7  38
HETATM   38  C   UNL     1       3.182   1.562   1.139  1.00  0.00     0.032 A 
HETATM   39  C   UNL     1       2.700   2.869   1.099  1.00  0.00     0.017 A 
HETATM   40  C   UNL     1       3.510   3.966   1.437  1.00  0.00     0.001 A 
HETATM   41  C   UNL     1       4.816   3.773   1.865  1.00  0.00     0.000 A 
HETATM   42  C   UNL     1       5.319   2.483   1.942  1.00  0.00     0.001 A 
HETATM   43  C   UNL     1       4.515   1.397   1.577  1.00  0.00     0.017 A 
ENDBRANCH   7  38
TORSDOF 7
