REMARK  7 active torsions:
REMARK  status: ('A' for Active; 'I' for Inactive)
REMARK    1  A    between atoms: C_2  and  O_3 
REMARK    2  A    between atoms: O_3  and  C_4 
REMARK    3  A    between atoms: C_8  and  N_10 
REMARK    4  A    between atoms: C_12  and  C_22 
REMARK    5  A    between atoms: C_14  and  C_15 
REMARK       I    between atoms: C_22  and  N_24 
REMARK    6  A    between atoms: N_27  and  C_30 
REMARK    7  A    between atoms: C_32  and  C_33 
ROOT
HETATM    1  N   UNL     1       6.787  -3.338  -2.399  1.00  0.00    -0.304 N 
HETATM    2  C   UNL     1       7.930  -3.611  -3.143  1.00  0.00     0.136 C 
HETATM    3  C   UNL     1       8.102  -4.979  -3.176  1.00  0.00     0.142 C 
HETATM    4  N   UNL     1       7.036  -5.556  -2.518  1.00  0.00    -0.223 NA
HETATM    5  C   UNL     1       6.197  -4.594  -2.179  1.00  0.00     0.145 C 
ENDROOT
BRANCH   3   6
HETATM    6  C   UNL     1       9.084  -5.827  -3.886  1.00  0.00     0.274 C 
HETATM    7  O   UNL     1       8.772  -6.987  -4.167  1.00  0.00    -0.266 OA
HETATM    8  N   UNL     1      10.333  -5.338  -4.271  1.00  0.00    -0.344 N 
HETATM    9  C   UNL     1      10.954  -4.046  -3.966  1.00  0.00     0.146 C 
HETATM   10  C   UNL     1      11.081  -6.083  -5.299  1.00  0.00     0.146 C 
HETATM   11  C   UNL     1      11.049  -3.164  -5.232  1.00  0.00     0.143 C 
HETATM   12  N   UNL     1      11.698  -3.912  -6.320  1.00  0.00    -0.378 N 
HETATM   13  C   UNL     1      11.148  -5.256  -6.598  1.00  0.00     0.143 C 
BRANCH  12  14
HETATM   14  C   UNL     1      12.778  -3.411  -7.023  1.00  0.00     0.032 A 
HETATM   15  C   UNL     1      13.778  -4.241  -7.540  1.00  0.00     0.048 A 
HETATM   16  C   UNL     1      14.899  -3.766  -8.267  1.00  0.00     0.054 A 
HETATM   17  C   UNL     1      15.027  -2.369  -8.498  1.00  0.00    -0.009 A 
HETATM   18  C   UNL     1      16.076  -1.760  -9.231  1.00  0.00     0.013 A 
HETATM   19  C   UNL     1      14.030  -1.510  -7.974  1.00  0.00    -0.023 A 
HETATM   20  C   UNL     1      16.153  -0.377  -9.418  1.00  0.00     0.001 A 
HETATM   21  C   UNL     1      15.174   0.446  -8.885  1.00  0.00     0.001 A 
HETATM   22  C   UNL     1      14.118  -0.119  -8.172  1.00  0.00     0.012 A 
HETATM   23  C   UNL     1      12.940  -2.042  -7.257  1.00  0.00     0.041 A 
BRANCH  16  24
HETATM   24  C   UNL     1      15.896  -4.811  -8.747  1.00  0.00     0.210 C 
HETATM   25  O   UNL     1      17.119  -4.483  -8.855  1.00  0.00    -0.644 OA
HETATM   26  O   UNL     1      15.432  -5.976  -8.977  1.00  0.00    -0.644 OA
ENDBRANCH  16  24
ENDBRANCH  12  14
ENDBRANCH   3   6
BRANCH   1  27
HETATM   27  C   UNL     1       6.339  -2.016  -2.037  1.00  0.00     0.043 C 
HETATM   28  C   UNL     1       7.018  -0.871  -2.484  1.00  0.00     0.030 C 
HETATM   29  C   UNL     1       6.489   0.410  -2.262  1.00  0.00     0.005 C 
HETATM   30  C   UNL     1       5.258   0.568  -1.627  1.00  0.00     0.037 C 
HETATM   31  C   UNL     1       4.609  -0.555  -1.137  1.00  0.00     0.070 C 
HETATM   32  C   UNL     1       5.187  -1.819  -1.273  1.00  0.00     0.066 C 
BRANCH  31  33
HETATM   33  O   UNL     1       3.314  -0.561  -0.706  1.00  0.00    -0.351 OA
BRANCH  33  34
HETATM   34  C   UNL     1       2.993   0.345   0.342  1.00  0.00     0.171 C 
HETATM   35  C   UNL     1       1.478   0.326   0.471  1.00  0.00     0.034 C 
ENDBRANCH  33  34
ENDBRANCH  31  33
ENDBRANCH   1  27
BRANCH   5  36
HETATM   36  C   UNL     1       4.853  -4.907  -1.674  1.00  0.00     0.010 A 
HETATM   37  C   UNL     1       4.715  -5.813  -0.615  1.00  0.00     0.016 A 
HETATM   38  C   UNL     1       3.461  -6.071  -0.056  1.00  0.00     0.007 A 
HETATM   39  C   UNL     1       2.319  -5.430  -0.550  1.00  0.00    -0.062 A 
HETATM   40  C   UNL     1       0.996  -5.632   0.126  1.00  0.00     0.048 C 
HETATM   41  C   UNL     1       2.443  -4.578  -1.652  1.00  0.00     0.007 A 
HETATM   42  C   UNL     1       3.695  -4.349  -2.234  1.00  0.00     0.016 A 
ENDBRANCH   5  36
TORSDOF 7
