REMARK  11 active torsions:
REMARK  status: ('A' for Active; 'I' for Inactive)
REMARK    1  A    between atoms: C_1  and  C_2 
REMARK    2  A    between atoms: C_1  and  O_11 
REMARK    3  A    between atoms: C_2  and  C_3 
REMARK    4  A    between atoms: C_3  and  C_15 
REMARK    5  A    between atoms: C_3  and  C_4 
REMARK    6  A    between atoms: C_4  and  C_5 
REMARK    7  A    between atoms: C_5  and  C_6 
REMARK    8  A    between atoms: C_6  and  C_7 
REMARK    9  A    between atoms: C_7  and  C_8 
REMARK   10  A    between atoms: C_8  and  C_9 
REMARK   11  A    between atoms: C_9  and  C_20 
ROOT
HETATM    1  C   UNL     1      -1.210  -2.196  -0.148  1.00  0.00     0.001 C 
ENDROOT
BRANCH   1   2
HETATM    2  C   UNL     1       0.016  -1.408  -0.628  1.00  0.00     0.010 C 
BRANCH   2   3
HETATM    3  C   UNL     1       1.276  -2.272  -0.932  1.00  0.00     0.031 C 
BRANCH   3   4
HETATM    4  C   UNL     1       2.120  -2.514   0.336  1.00  0.00     0.119 C 
BRANCH   4   5
HETATM    5  C   UNL     1       2.576  -1.329   1.162  1.00  0.00     0.140 C 
HETATM    6  O   UNL     1       2.855  -1.441   2.346  1.00  0.00    -0.650 OA
BRANCH   5   7
HETATM    7  O   UNL     1       2.734  -0.159   0.517  1.00  0.00    -0.776 OA
HETATM    8  H   UNL     1       2.526  -0.139  -0.432  1.00  0.00     0.167 HD
ENDBRANCH   5   7
ENDBRANCH   4   5
ENDBRANCH   3   4
BRANCH   3   9
HETATM    9  C   UNL     1       0.877  -3.550  -1.659  1.00  0.00    -0.018 A 
HETATM   10  C   UNL     1       0.139  -3.515  -2.832  1.00  0.00     0.127 A 
HETATM   11  N   UNL     1      -0.497  -4.580  -3.359  1.00  0.00    -0.245 NA
HETATM   12  C   UNL     1      -0.365  -5.742  -2.696  1.00  0.00     0.121 A 
HETATM   13  N   UNL     1       0.436  -5.921  -1.633  1.00  0.00    -0.245 NA
HETATM   14  C   UNL     1      -1.216  -6.899  -3.115  1.00  0.00     0.093 C 
HETATM   15  C   UNL     1       1.040  -4.822  -1.142  1.00  0.00     0.127 A 
ENDBRANCH   3   9
ENDBRANCH   2   3
ENDBRANCH   1   2
BRANCH   1  16
HETATM   16  C   UNL     1      -2.415  -1.288   0.051  1.00  0.00     0.000 C 
BRANCH  16  17
HETATM   17  C   UNL     1      -3.714  -2.093  -0.037  1.00  0.00     0.000 C 
BRANCH  17  18
HETATM   18  C   UNL     1      -4.898  -1.171   0.204  1.00  0.00     0.006 C 
BRANCH  18  19
HETATM   19  C   UNL     1      -6.242  -1.891   0.103  1.00  0.00     0.059 C 
BRANCH  19  20
HETATM   20  C   UNL     1      -7.436  -1.028   0.438  1.00  0.00     0.037 A 
HETATM   21  N   UNL     1      -8.624  -1.679   0.504  1.00  0.00    -0.236 NA
HETATM   22  C   UNL     1      -9.727  -0.968   0.803  1.00  0.00     0.130 A 
HETATM   23  C   UNL     1      -9.696   0.405   1.055  1.00  0.00    -0.012 A 
HETATM   24  N   UNL     1     -10.927  -1.666   0.796  1.00  0.00    -0.374 N 
HETATM   25  C   UNL     1      -8.473   1.063   0.989  1.00  0.00     0.013 A 
HETATM   26  C   UNL     1     -10.931   1.144   1.484  1.00  0.00     0.044 C 
HETATM   27  C   UNL     1      -7.334   0.343   0.664  1.00  0.00     0.028 A 
HETATM   28  C   UNL     1     -12.202   0.348   1.206  1.00  0.00     0.024 C 
HETATM   29  C   UNL     1     -11.998  -1.113   1.594  1.00  0.00     0.121 C 
HETATM   30  H   UNL     1     -10.743  -2.663   0.834  1.00  0.00     0.161 HD
ENDBRANCH  19  20
ENDBRANCH  18  19
ENDBRANCH  17  18
ENDBRANCH  16  17
ENDBRANCH   1  16
TORSDOF 11
