REMARK  4 active torsions:
REMARK  status: ('A' for Active; 'I' for Inactive)
REMARK    1  A    between atoms: C_2  and  O_4 
REMARK    2  A    between atoms: C_2  and  C_5 
REMARK    3  A    between atoms: C_9  and  C_14 
REMARK    4  A    between atoms: C_19  and  C_21 
ROOT
HETATM    1  C   UNL     1       6.258  -4.516   8.605  1.00  0.00     0.036 C 
HETATM    2  C   UNL     1       7.029  -4.310   9.778  1.00  0.00     0.129 C 
HETATM    3  F   UNL     1       7.456  -3.091  10.132  1.00  0.00    -0.205 F 
HETATM    4  C   UNL     1       7.484  -5.341  10.614  1.00  0.00     0.043 C 
HETATM    5  C   UNL     1       7.242  -6.661  10.295  1.00  0.00     0.005 C 
HETATM    6  C   UNL     1       6.601  -6.934   9.100  1.00  0.00     0.024 C 
HETATM    7  C   UNL     1       6.138  -5.896   8.252  1.00  0.00     0.058 C 
HETATM    8  C   UNL     1       5.633  -6.401   7.007  1.00  0.00     0.100 C 
HETATM    9  N   UNL     1       5.279  -6.863   6.000  1.00  0.00    -0.191 NA
ENDROOT
BRANCH   1  10
HETATM   10  C   UNL     1       5.635  -3.341   7.849  1.00  0.00     0.018 A 
HETATM   11  C   UNL     1       5.524  -2.032   8.369  1.00  0.00     0.127 A 
HETATM   12  C   UNL     1       4.966  -0.964   7.653  1.00  0.00     0.044 A 
HETATM   13  F   UNL     1       5.889  -1.728   9.620  1.00  0.00    -0.205 F 
HETATM   14  C   UNL     1       4.419  -1.161   6.392  1.00  0.00     0.017 A 
HETATM   15  C   UNL     1       4.439  -2.431   5.830  1.00  0.00    -0.004 A 
HETATM   16  C   UNL     1       5.053  -3.474   6.567  1.00  0.00     0.029 A 
BRANCH  15  17
HETATM   17  C   UNL     1       3.838  -2.746   4.523  1.00  0.00     0.105 A 
HETATM   18  N   UNL     1       3.625  -1.872   3.471  1.00  0.00    -0.058 N 
HETATM   19  N   UNL     1       3.914  -0.534   3.446  1.00  0.00    -0.162 NA
HETATM   20  C   UNL     1       3.068  -2.598   2.416  1.00  0.00     0.750 A 
HETATM   21  C   UNL     1       3.596   0.023   2.318  1.00  0.00     0.170 A 
HETATM   22  C   UNL     1       2.966  -0.731   1.166  1.00  0.00     0.106 A 
HETATM   23  N   UNL     1       2.728  -2.006   1.242  1.00  0.00    -0.061 NA
HETATM   24  N   UNL     1       2.922  -3.860   2.743  1.00  0.00    -0.071 NA
HETATM   25  C   UNL     1       3.389  -3.961   4.023  1.00  0.00     0.169 A 
BRANCH  22  26
HETATM   26  C   UNL     1       2.550   0.065  -0.074  1.00  0.00     0.097 C 
HETATM   27  C   UNL     1       1.022   0.129  -0.098  1.00  0.00     0.052 C 
HETATM   28  C   UNL     1       3.092  -0.613  -1.333  1.00  0.00     0.052 C 
BRANCH  26  29
HETATM   29  O   UNL     1       3.049   1.398  -0.043  1.00  0.00    -0.384 OA
HETATM   30  H   UNL     1       2.753   1.847  -0.856  1.00  0.00     0.211 HD
ENDBRANCH  26  29
ENDBRANCH  22  26
ENDBRANCH  15  17
ENDBRANCH   1  10
TORSDOF 4
