REMARK  6 active torsions:
REMARK  status: ('A' for Active; 'I' for Inactive)
REMARK    1  A    between atoms: C_3  and  N_9 
REMARK    2  A    between atoms: C_4  and  O_5 
REMARK    3  A    between atoms: N_9  and  C_10 
REMARK    4  A    between atoms: C_12  and  C_16 
REMARK    5  A    between atoms: C_12  and  C_18 
REMARK       I    between atoms: C_18  and  N_26 
REMARK    6  A    between atoms: C_22  and  C_30 
ROOT
HETATM    1  C   UNL     1      -3.080   1.103  -0.412  1.00  0.00     0.187 C 
HETATM    2  C   UNL     1      -2.507   1.132  -1.829  1.00  0.00     0.052 C 
HETATM    3  C   UNL     1      -2.647   2.598  -2.336  1.00  0.00     0.046 C 
HETATM    4  C   UNL     1      -2.814   3.420  -0.997  1.00  0.00     0.022 C 
HETATM    5  C   UNL     1      -2.627   2.436   0.152  1.00  0.00     0.034 C 
ENDROOT
BRANCH   3   6
HETATM    6  C   UNL     1      -1.371   3.161  -3.055  1.00  0.00    -0.005 C 
HETATM    7  C   UNL     1      -0.734   2.298  -4.146  1.00  0.00     0.011 C 
HETATM    8  C   UNL     1      -1.557   4.590  -3.594  1.00  0.00     0.011 C 
ENDBRANCH   3   6
BRANCH   3   9
HETATM    9  C   UNL     1      -3.984   2.682  -3.126  1.00  0.00     0.229 C 
HETATM   10  O   UNL     1      -5.051   2.719  -2.498  1.00  0.00    -0.272 OA
HETATM   11  N   UNL     1      -3.968   2.560  -4.501  1.00  0.00    -0.347 N 
HETATM   12  C   UNL     1      -4.924   3.370  -5.265  1.00  0.00     0.166 C 
HETATM   13  C   UNL     1      -3.630   1.283  -5.135  1.00  0.00     0.132 C 
HETATM   14  C   UNL     1      -5.912   2.582  -6.087  1.00  0.00    -0.015 A 
HETATM   15  C   UNL     1      -6.832   3.238  -6.914  1.00  0.00     0.028 A 
HETATM   16  C   UNL     1      -5.897   1.187  -6.118  1.00  0.00     0.043 A 
HETATM   17  C   UNL     1      -7.702   2.501  -7.726  1.00  0.00     0.066 A 
HETATM   18  C   UNL     1      -7.624   1.119  -7.657  1.00  0.00     0.133 A 
HETATM   19  N   UNL     1      -6.753   0.452  -6.865  1.00  0.00    -0.264 NA
HETATM   20  C   UNL     1      -4.881   0.428  -5.312  1.00  0.00     0.080 C 
BRANCH  17  21
HETATM   21  C   UNL     1      -8.650   3.169  -8.675  1.00  0.00     0.418 C 
HETATM   22  F   UNL     1      -9.342   4.183  -8.087  1.00  0.00    -0.166 F 
HETATM   23  F   UNL     1      -8.005   3.723  -9.737  1.00  0.00    -0.166 F 
HETATM   24  F   UNL     1      -9.584   2.328  -9.195  1.00  0.00    -0.166 F 
ENDBRANCH  17  21
ENDBRANCH   3   9
BRANCH   1  25
HETATM   25  N   UNL     1      -4.570   1.061  -0.390  1.00  0.00    -0.064 N 
HETATM   26  H   UNL     1      -4.976   1.839  -0.951  1.00  0.00     0.278 HD
HETATM   27  H   UNL     1      -4.869   1.263   0.584  1.00  0.00     0.278 HD
BRANCH  25  28
HETATM   28  C   UNL     1      -5.356  -0.196  -0.727  1.00  0.00     0.219 C 
HETATM   29  C   UNL     1      -4.577  -1.458  -0.355  1.00  0.00     0.062 C 
HETATM   30  C   UNL     1      -5.479  -2.677  -0.461  1.00  0.00     0.169 C 
HETATM   31  O   UNL     1      -6.601  -2.511   0.397  1.00  0.00    -0.388 OA
HETATM   32  C   UNL     1      -7.438  -1.423   0.009  1.00  0.00     0.201 C 
HETATM   33  C   UNL     1      -6.684  -0.090   0.069  1.00  0.00     0.175 C 
BRANCH  33  34
HETATM   34  O   UNL     1      -6.276   0.316   1.399  1.00  0.00    -0.386 OA
HETATM   35  C   UNL     1      -7.355   0.550   2.300  1.00  0.00     0.202 C 
ENDBRANCH  33  34
ENDBRANCH  25  28
ENDBRANCH   1  25
TORSDOF 6
