REMARK  6 active torsions:
REMARK  status: ('A' for Active; 'I' for Inactive)
REMARK    1  A    between atoms: C_5  and  N_10 
REMARK    2  A    between atoms: N_10  and  C_11 
REMARK    3  A    between atoms: C_14  and  O_17 
REMARK    4  A    between atoms: O_17  and  C_18 
REMARK    5  A    between atoms: C_18  and  C_19 
REMARK    6  A    between atoms: C_19  and  C_25 
ROOT
HETATM    1  C   UNL     1      10.819   4.561  -5.872  1.00  0.00     0.083 C 
HETATM    2  C   UNL     1      10.261   3.421  -5.006  1.00  0.00     0.028 C 
HETATM    3  C   UNL     1       8.906   2.873  -5.462  1.00  0.00     0.034 C 
HETATM    4  C   UNL     1       7.888   3.986  -5.704  1.00  0.00     0.121 C 
HETATM    5  C   UNL     1       8.434   4.924  -6.777  1.00  0.00     0.034 C 
HETATM    6  C   UNL     1       9.753   5.563  -6.340  1.00  0.00     0.028 C 
ENDROOT
BRANCH   1   7
HETATM    7  N   UNL     1      11.564   4.037  -7.020  1.00  0.00    -0.371 N 
HETATM    8  H   UNL     1      11.167   3.197  -7.436  1.00  0.00     0.161 HD
BRANCH   7   9
HETATM    9  C   UNL     1      12.322   4.814  -7.886  1.00  0.00     0.118 A 
HETATM   10  N   UNL     1      12.748   6.085  -7.544  1.00  0.00    -0.336 N 
HETATM   11  C   UNL     1      13.400   6.903  -8.425  1.00  0.00     0.211 A 
HETATM   12  H   UNL     1      12.583   6.387  -6.595  1.00  0.00     0.168 HD
HETATM   13  N   UNL     1      13.722   6.602  -9.639  1.00  0.00    -0.222 NA
HETATM   14  C   UNL     1      13.372   5.336 -10.022  1.00  0.00     0.188 A 
HETATM   15  C   UNL     1      12.669   4.426  -9.121  1.00  0.00     0.076 A 
HETATM   16  N   UNL     1      13.581   4.792 -11.188  1.00  0.00    -0.129 NA
HETATM   17  C   UNL     1      12.516   3.256  -9.956  1.00  0.00     0.160 A 
HETATM   18  N   UNL     1      13.025   3.436 -11.141  1.00  0.00    -0.160 NA
ENDBRANCH   7   9
ENDBRANCH   1   7
BRANCH   4  19
HETATM   19  O   UNL     1       7.724   4.723  -4.484  1.00  0.00    -0.383 OA
BRANCH  19  20
HETATM   20  C   UNL     1       6.353   4.956  -4.135  1.00  0.00     0.210 C 
BRANCH  20  21
HETATM   21  C   UNL     1       6.221   5.955  -2.965  1.00  0.00     0.230 C 
HETATM   22  F   UNL     1       4.986   5.727  -2.416  1.00  0.00    -0.242 F 
BRANCH  21  23
HETATM   23  C   UNL     1       6.434   7.419  -3.303  1.00  0.00     0.016 A 
HETATM   24  C   UNL     1       7.303   7.844  -4.318  1.00  0.00     0.013 A 
HETATM   25  C   UNL     1       7.558   9.198  -4.550  1.00  0.00     0.001 A 
HETATM   26  C   UNL     1       6.934  10.165  -3.771  1.00  0.00     0.003 A 
HETATM   27  C   UNL     1       6.059   9.769  -2.763  1.00  0.00     0.043 A 
HETATM   28  C   UNL     1       5.825   8.412  -2.531  1.00  0.00     0.125 A 
HETATM   29  F   UNL     1       5.005   8.078  -1.525  1.00  0.00    -0.205 F 
ENDBRANCH  21  23
ENDBRANCH  20  21
ENDBRANCH  19  20
ENDBRANCH   4  19
TORSDOF 6
