REMARK  2 active torsions:
REMARK  status: ('A' for Active; 'I' for Inactive)
REMARK    1  A    between atoms: C_7  and  O_20 
REMARK    2  A    between atoms: C_11  and  C_13 
ROOT
HETATM    1  C   UNL     1      -0.391  -0.534  -0.168  1.00  0.00     0.006 A 
HETATM    2  C   UNL     1      -0.692   0.810   0.086  1.00  0.00    -0.044 A 
HETATM    3  C   UNL     1      -1.303  -1.533   0.149  1.00  0.00     0.014 A 
HETATM    4  C   UNL     1      -1.907   1.185   0.640  1.00  0.00     0.031 A 
HETATM    5  C   UNL     1      -2.536  -1.167   0.698  1.00  0.00     0.024 A 
HETATM    6  C   UNL     1      -2.834   0.183   0.932  1.00  0.00     0.034 A 
HETATM    7  C   UNL     1       0.951  -0.680  -0.839  1.00  0.00     0.195 C 
HETATM    8  C   UNL     1       1.241   0.783  -1.245  1.00  0.00     0.120 C 
HETATM    9  C   UNL     1       0.454   1.696  -0.292  1.00  0.00     0.060 C 
HETATM   10  N   UNL     1       2.004  -1.202   0.036  1.00  0.00    -0.238 NA
HETATM   11  C   UNL     1       3.091  -0.508  -0.089  1.00  0.00     0.102 C 
HETATM   12  S   UNL     1       3.028   0.948  -1.062  1.00  0.00    -0.099 SA
HETATM   13 CL   UNL     1      -4.371   0.613   1.580  1.00  0.00    -0.084 Cl
ENDROOT
BRANCH  11  14
HETATM   14  C   UNL     1       4.385  -0.931   0.505  1.00  0.00    -0.001 A 
HETATM   15  C   UNL     1       5.452  -0.046   0.714  1.00  0.00     0.014 A 
HETATM   16  C   UNL     1       6.678  -0.518   1.190  1.00  0.00     0.001 A 
HETATM   17  C   UNL     1       6.849  -1.874   1.462  1.00  0.00     0.000 A 
HETATM   18  C   UNL     1       5.789  -2.760   1.277  1.00  0.00     0.001 A 
HETATM   19  C   UNL     1       4.560  -2.290   0.808  1.00  0.00     0.014 A 
ENDBRANCH  11  14
BRANCH   7  20
HETATM   20  O   UNL     1       0.787  -1.483  -1.995  1.00  0.00    -0.364 OA
HETATM   21  H   UNL     1       1.313  -2.271  -1.780  1.00  0.00     0.213 HD
ENDBRANCH   7  20
TORSDOF 2
