REMARK  10 active torsions:
REMARK  status: ('A' for Active; 'I' for Inactive)
REMARK    1  A    between atoms: C_2  and  C_22 
REMARK    2  A    between atoms: C_7  and  C_30 
REMARK    3  A    between atoms: C_8  and  C_10 
REMARK    4  A    between atoms: C_9  and  C_19 
REMARK    5  A    between atoms: C_22  and  C_23 
REMARK    6  A    between atoms: C_23  and  C_24 
REMARK    7  A    between atoms: C_27  and  O_38 
REMARK    8  A    between atoms: C_31  and  C_32 
REMARK    9  A    between atoms: C_32  and  C_33 
REMARK   10  A    between atoms: C_33  and  C_35 
ROOT
HETATM    1  N   UNL     1       4.802  -3.537   1.631  1.00  0.00    -0.257 NA
HETATM    2  C   UNL     1       4.534  -3.061   0.390  1.00  0.00     0.035 C 
HETATM    3  C   UNL     1       4.460  -4.809   1.912  1.00  0.00     0.051 C 
HETATM    4  C   UNL     1       4.055  -5.704   0.944  1.00  0.00    -0.023 C 
HETATM    5  C   UNL     1       4.100  -3.901  -0.633  1.00  0.00     0.028 C 
HETATM    6  C   UNL     1       3.893  -5.253  -0.358  1.00  0.00     0.012 C 
HETATM    7  C   UNL     1       4.442  -5.392   3.313  1.00  0.00     0.087 C 
HETATM    8  C   UNL     1       4.375  -6.929   2.967  1.00  0.00     0.114 C 
HETATM    9  C   UNL     1       3.924  -7.097   1.488  1.00  0.00     0.069 C 
ENDROOT
BRANCH   7  10
HETATM   10  C   UNL     1       3.314  -4.958   4.302  1.00  0.00    -0.041 C 
HETATM   11  C   UNL     1       3.254  -5.725   5.496  1.00  0.00     0.011 C 
HETATM   12  C   UNL     1       2.291  -5.514   6.487  1.00  0.00     0.037 C 
HETATM   13  C   UNL     1       1.338  -4.525   6.322  1.00  0.00     0.068 C 
HETATM   14  C   UNL     1       1.379  -3.745   5.170  1.00  0.00     0.044 C 
HETATM   15  C   UNL     1       2.403  -3.863   4.204  1.00  0.00    -0.048 C 
BRANCH  13  16
HETATM   16  O   UNL     1       0.430  -4.373   7.338  1.00  0.00    -0.356 OA
HETATM   17  C   UNL     1      -0.246  -3.117   7.361  1.00  0.00     0.210 C 
ENDBRANCH  13  16
BRANCH  15  18
HETATM   18  C   UNL     1       2.526  -2.751   3.164  1.00  0.00     0.054 C 
BRANCH  18  19
HETATM   19  C   UNL     1       1.678  -1.447   3.226  1.00  0.00     0.087 C 
HETATM   20  C   UNL     1       0.749  -1.354   2.014  1.00  0.00     0.021 C 
BRANCH  19  21
HETATM   21  C   UNL     1       2.577  -0.195   3.369  1.00  0.00     0.176 C 
HETATM   22  O   UNL     1       2.455   0.691   2.470  1.00  0.00    -0.648 OA
HETATM   23  O   UNL     1       3.269  -0.144   4.423  1.00  0.00    -0.648 OA
ENDBRANCH  19  21
ENDBRANCH  18  19
ENDBRANCH  15  18
ENDBRANCH   7  10
BRANCH   8  24
HETATM   24  C   UNL     1       5.718  -7.607   3.281  1.00  0.00     0.179 C 
HETATM   25  O   UNL     1       6.149  -8.440   2.433  1.00  0.00    -0.648 OA
HETATM   26  O   UNL     1       6.204  -7.346   4.418  1.00  0.00    -0.648 OA
ENDBRANCH   8  24
BRANCH   9  27
HETATM   27  C   UNL     1       2.561  -7.735   1.222  1.00  0.00    -0.046 A 
HETATM   28  C   UNL     1       1.526  -7.786   2.169  1.00  0.00     0.047 A 
HETATM   29  C   UNL     1       0.351  -8.427   1.824  1.00  0.00     0.105 A 
HETATM   30  O   UNL     1      -0.727  -8.604   2.637  1.00  0.00    -0.323 OA
HETATM   31  C   UNL     1       0.155  -8.974   0.577  1.00  0.00     0.105 A 
HETATM   32  C   UNL     1      -1.609  -9.328   1.763  1.00  0.00     0.352 A 
HETATM   33  O   UNL     1      -1.071  -9.549   0.443  1.00  0.00    -0.323 OA
HETATM   34  C   UNL     1       1.127  -8.927  -0.393  1.00  0.00     0.040 A 
HETATM   35  C   UNL     1       2.338  -8.318  -0.057  1.00  0.00     0.011 A 
ENDBRANCH   9  27
BRANCH   2  36
HETATM   36  C   UNL     1       4.609  -1.558   0.280  1.00  0.00     0.059 C 
BRANCH  36  37
HETATM   37  C   UNL     1       4.080  -0.906  -1.002  1.00  0.00     0.006 C 
BRANCH  37  38
HETATM   38  C   UNL     1       3.939   0.608  -0.820  1.00  0.00    -0.004 C 
HETATM   39  C   UNL     1       3.523   1.302  -2.105  1.00  0.00     0.005 C 
ENDBRANCH  37  38
ENDBRANCH  36  37
ENDBRANCH   2  36
TORSDOF 10
