REMARK  5 active torsions:
REMARK  status: ('A' for Active; 'I' for Inactive)
REMARK    1  A    between atoms: N_6  and  C_8 
REMARK    2  A    between atoms: C_8  and  C_9 
REMARK    3  A    between atoms: C_10  and  C_11 
REMARK    4  A    between atoms: C_16  and  C_17 
REMARK    5  A    between atoms: C_21  and  O_24 
ROOT
HETATM    1  C   UNL     1       3.538  -4.620  -0.934  1.00  0.00    -0.035 C 
HETATM    2  C   UNL     1       4.652  -5.173  -0.318  1.00  0.00     0.012 C 
HETATM    3  C   UNL     1       2.332  -5.306  -0.813  1.00  0.00     0.036 C 
HETATM    4  C   UNL     1       4.511  -6.284   0.534  1.00  0.00     0.015 C 
HETATM    5  C   UNL     1       2.185  -6.419   0.039  1.00  0.00     0.045 C 
HETATM    6  C   UNL     1       3.267  -6.912   0.809  1.00  0.00    -0.004 C 
HETATM    7 CL   UNL     1       0.588  -7.097  -0.002  1.00  0.00    -0.083 Cl
ENDROOT
BRANCH   1   8
HETATM    8  C   UNL     1       3.649  -3.356  -1.674  1.00  0.00     0.009 C 
HETATM    9  C   UNL     1       2.842  -2.280  -1.477  1.00  0.00     0.004 C 
BRANCH   9  10
HETATM   10  C   UNL     1       1.716  -2.222  -0.481  1.00  0.00     0.299 C 
BRANCH  10  11
HETATM   11  N   UNL     1       0.937  -0.975  -0.415  1.00  0.00     0.091 N 
HETATM   12  C   UNL     1      -0.254  -1.202   0.424  1.00  0.00     0.272 C 
HETATM   13  C   UNL     1      -1.471  -0.483  -0.155  1.00  0.00     0.030 C 
HETATM   14  C   UNL     1      -1.492   1.025   0.053  1.00  0.00     0.002 C 
HETATM   15  C   UNL     1      -0.234   1.759  -0.408  1.00  0.00     0.002 C 
HETATM   16  C   UNL     1       0.982   1.428   0.456  1.00  0.00     0.030 C 
HETATM   17  C   UNL     1       1.746   0.160   0.046  1.00  0.00     0.272 C 
ENDBRANCH  10  11
ENDBRANCH   9  10
ENDBRANCH   1   8
BRANCH   6  18
HETATM   18  C   UNL     1       3.196  -7.972   1.888  1.00  0.00    -0.022 A 
HETATM   19  C   UNL     1       4.356  -8.628   2.360  1.00  0.00     0.012 A 
HETATM   20  C   UNL     1       4.330  -9.544   3.421  1.00  0.00     0.004 A 
HETATM   21  C   UNL     1       3.128  -9.869   4.031  1.00  0.00     0.037 A 
HETATM   22  C   UNL     1       1.956  -9.256   3.607  1.00  0.00     0.069 A 
HETATM   23  C   UNL     1       2.005  -8.314   2.566  1.00  0.00     0.049 A 
BRANCH  22  24
HETATM   24  O   UNL     1       0.831  -9.643   4.285  1.00  0.00    -0.356 OA
HETATM   25  C   UNL     1      -0.343  -8.868   4.076  1.00  0.00     0.210 C 
ENDBRANCH  22  24
ENDBRANCH   6  18
TORSDOF 5
