REMARK  5 active torsions:
REMARK  status: ('A' for Active; 'I' for Inactive)
REMARK    1  A    between atoms: N_2  and  C_13 
REMARK    2  A    between atoms: C_4  and  C_7 
REMARK    3  A    between atoms: C_13  and  C_14 
REMARK    4  A    between atoms: C_18  and  C_19 
REMARK    5  A    between atoms: C_26  and  O_29 
ROOT
HETATM    1  C   UNL     1       0.327  -0.256   2.590  1.00  0.00     0.081 C 
HETATM    2  O   UNL     1      -0.257   0.879   3.068  1.00  0.00    -0.324 OA
HETATM    3  C   UNL     1      -0.365  -1.356   3.056  1.00  0.00     0.048 C 
HETATM    4  C   UNL     1      -1.418   0.504   3.673  1.00  0.00     0.154 C 
HETATM    5  C   UNL     1      -1.580  -0.867   3.627  1.00  0.00    -0.001 C 
ENDROOT
BRANCH   1   6
HETATM    6  C   UNL     1       1.484  -0.101   1.655  1.00  0.00     0.338 C 
BRANCH   6   7
HETATM    7  N   UNL     1       1.157   0.132   0.224  1.00  0.00     0.107 N 
HETATM    8  C   UNL     1       0.480   1.423   0.013  1.00  0.00     0.304 C 
HETATM    9  C   UNL     1      -1.073   1.440   0.050  1.00  0.00     0.302 C 
HETATM   10  N   UNL     1      -1.762   0.291  -0.560  1.00  0.00     0.088 N 
HETATM   11  C   UNL     1      -1.099  -0.989  -0.261  1.00  0.00     0.312 C 
HETATM   12  C   UNL     1      -3.163   0.239  -0.147  1.00  0.00     0.310 C 
HETATM   13  C   UNL     1       0.451  -0.990  -0.441  1.00  0.00     0.284 C 
BRANCH  13  14
HETATM   14  C   UNL     1       0.749  -1.139  -1.950  1.00  0.00    -0.023 A 
HETATM   15  C   UNL     1       0.332  -0.182  -2.896  1.00  0.00     0.012 A 
HETATM   16  C   UNL     1       0.393  -0.435  -4.268  1.00  0.00     0.043 A 
HETATM   17  C   UNL     1       0.876  -1.654  -4.712  1.00  0.00     0.116 A 
HETATM   18  C   UNL     1       1.327  -2.610  -3.812  1.00  0.00     0.043 A 
HETATM   19  F   UNL     1       0.881  -1.922  -6.024  1.00  0.00    -0.206 F 
HETATM   20  C   UNL     1       1.273  -2.353  -2.437  1.00  0.00     0.012 A 
ENDBRANCH  13  14
ENDBRANCH   6   7
ENDBRANCH   1   6
BRANCH   5  21
HETATM   21  C   UNL     1      -2.802  -1.592   3.980  1.00  0.00    -0.021 A 
HETATM   22  C   UNL     1      -3.970  -0.915   4.382  1.00  0.00     0.052 A 
HETATM   23  C   UNL     1      -5.092  -1.705   4.633  1.00  0.00     0.109 A 
HETATM   24  O   UNL     1      -6.329  -1.286   5.040  1.00  0.00    -0.270 OA
HETATM   25  C   UNL     1      -5.136  -3.086   4.508  1.00  0.00     0.095 A 
HETATM   26  C   UNL     1      -7.014  -2.451   5.140  1.00  0.00     0.291 A 
HETATM   27  N   UNL     1      -6.384  -3.554   4.838  1.00  0.00    -0.200 NA
HETATM   28  C   UNL     1      -3.984  -3.759   4.096  1.00  0.00     0.035 A 
HETATM   29  C   UNL     1      -2.830  -2.997   3.840  1.00  0.00     0.015 A 
BRANCH  26  30
HETATM   30  O   UNL     1      -8.258  -2.385   5.553  1.00  0.00    -0.325 OA
HETATM   31  H   UNL     1      -8.503  -3.325   5.569  1.00  0.00     0.221 HD
ENDBRANCH  26  30
ENDBRANCH   5  21
TORSDOF 5
