REMARK  3 active torsions:
REMARK  status: ('A' for Active; 'I' for Inactive)
REMARK       I    between atoms: N_1  and  C_14 
REMARK       I    between atoms: N_2  and  C_15 
REMARK       I    between atoms: N_3  and  C_15 
REMARK    1  A    between atoms: C_4  and  C_14 
REMARK    2  A    between atoms: O_16  and  S_19 
REMARK    3  A    between atoms: O_17  and  S_19 
ROOT
HETATM    1  C   UNL     1       3.128  -1.274   0.415  1.00  0.00     0.035 A 
HETATM    2  C   UNL     1       4.343  -1.194   1.094  1.00  0.00     0.039 A 
HETATM    3  C   UNL     1       2.551  -2.527   0.196  1.00  0.00     0.018 A 
HETATM    4  C   UNL     1       4.954  -2.365   1.549  1.00  0.00     0.041 A 
HETATM    5  C   UNL     1       3.194  -3.692   0.647  1.00  0.00     0.014 A 
HETATM    6  C   UNL     1       4.417  -3.640   1.339  1.00  0.00    -0.011 A 
HETATM    7  C   UNL     1       5.098  -4.876   1.816  1.00  0.00    -0.053 A 
HETATM    8  C   UNL     1       4.466  -6.210   1.494  1.00  0.00     0.049 C 
HETATM    9  C   UNL     1       6.252  -4.861   2.515  1.00  0.00    -0.006 A 
HETATM   10  C   UNL     1       7.096  -3.713   2.969  1.00  0.00     0.140 A 
HETATM   11  S   UNL     1       6.417  -2.196   2.414  1.00  0.00    -0.006 S 
ENDROOT
BRANCH   1  12
HETATM   12  C   UNL     1       2.477  -0.025  -0.069  1.00  0.00     0.279 C 
HETATM   13  N   UNL     1       1.115  -0.103  -0.255  1.00  0.00    -0.186 NA
HETATM   14  C   UNL     1       0.460   0.964  -0.549  1.00  0.00     0.152 C 
HETATM   15  N   UNL     1       0.897   2.235  -0.707  1.00  0.00    -0.277 NA
HETATM   16  N   UNL     1      -0.881   0.924  -0.723  1.00  0.00    -0.277 NA
HETATM   17  H   UNL     1       0.521   2.678  -1.537  1.00  0.00     0.126 HD
HETATM   18  H   UNL     1       1.920   2.279  -0.717  1.00  0.00     0.126 HD
HETATM   19  H   UNL     1      -1.270   0.051  -0.381  1.00  0.00     0.126 HD
HETATM   20  H   UNL     1      -1.344   1.720  -0.301  1.00  0.00     0.126 HD
HETATM   21  O   UNL     1       3.173   0.968  -0.269  1.00  0.00    -0.265 OA
ENDBRANCH   1  12
BRANCH  11  22
HETATM   22  O   UNL     1       6.252  -1.330   3.760  1.00  0.00    -0.323 OA
HETATM   23  H   UNL     1       5.415  -1.478   4.258  1.00  0.00     0.228 HD
ENDBRANCH  11  22
BRANCH  11  24
HETATM   24  O   UNL     1       7.595  -1.536   1.540  1.00  0.00    -0.323 OA
HETATM   25  H   UNL     1       7.590  -1.765   0.582  1.00  0.00     0.228 HD
ENDBRANCH  11  24
TORSDOF 3
