REMARK  5 active torsions:
REMARK  status: ('A' for Active; 'I' for Inactive)
REMARK    1  A    between atoms: C_1  and  N_14 
REMARK    2  A    between atoms: C_1  and  C_2 
REMARK    3  A    between atoms: C_1  and  C_8 
REMARK       I    between atoms: N_14  and  C_15 
REMARK    4  A    between atoms: C_15  and  C_16 
REMARK    5  A    between atoms: C_20  and  C_24 
ROOT
HETATM    1  N   UNL     1       2.760  -0.534   2.157  1.00  0.00    -0.346 N 
HETATM    2  C   UNL     1       3.647  -1.486   2.598  1.00  0.00     0.254 C 
HETATM    3  O   UNL     1       3.441  -2.060   3.664  1.00  0.00    -0.268 OA
HETATM    4  H   UNL     1       1.971  -0.438   2.788  1.00  0.00     0.163 HD
ENDROOT
BRANCH   1   5
HETATM    5  C   UNL     1       2.861   0.494   1.107  1.00  0.00     0.151 C 
BRANCH   5   6
HETATM    6  C   UNL     1       2.200   1.781   1.643  1.00  0.00    -0.033 A 
HETATM    7  C   UNL     1       1.190   2.479   0.961  1.00  0.00     0.009 A 
HETATM    8  C   UNL     1       0.629   3.647   1.488  1.00  0.00     0.001 A 
HETATM    9  C   UNL     1       1.065   4.142   2.711  1.00  0.00     0.000 A 
HETATM   10  C   UNL     1       2.065   3.472   3.408  1.00  0.00     0.001 A 
HETATM   11  C   UNL     1       2.630   2.307   2.879  1.00  0.00     0.009 A 
ENDBRANCH   5   6
BRANCH   5  12
HETATM   12  C   UNL     1       2.356   0.025  -0.317  1.00  0.00     0.247 C 
HETATM   13  N   UNL     1       2.853   0.970  -1.351  1.00  0.00     0.090 N 
HETATM   14  C   UNL     1       2.366   0.648  -2.690  1.00  0.00     0.270 C 
HETATM   15  H   UNL     1       3.873   0.957  -1.356  1.00  0.00     0.316 HD
HETATM   16  C   UNL     1       2.784  -0.754  -3.117  1.00  0.00     0.030 C 
HETATM   17  C   UNL     1       2.308  -1.784  -2.103  1.00  0.00     0.004 C 
HETATM   18  C   UNL     1       2.780  -1.402  -0.702  1.00  0.00     0.038 C 
ENDBRANCH   5  12
ENDBRANCH   1   5
BRANCH   2  19
HETATM   19  C   UNL     1       4.843  -1.859   1.809  1.00  0.00     0.054 A 
HETATM   20  C   UNL     1       5.828  -0.895   1.563  1.00  0.00     0.019 A 
HETATM   21  C   UNL     1       6.924  -1.207   0.765  1.00  0.00     0.002 A 
HETATM   22  C   UNL     1       7.074  -2.501   0.269  1.00  0.00     0.018 A 
HETATM   23  C   UNL     1       6.140  -3.514   0.571  1.00  0.00     0.070 A 
HETATM   24  C   UNL     1       5.004  -3.179   1.329  1.00  0.00     0.064 A 
HETATM   25 CL   UNL     1       3.758  -4.359   1.588  1.00  0.00    -0.082 Cl
BRANCH  23  26
HETATM   26  C   UNL     1       6.382  -4.893   0.004  1.00  0.00     0.419 C 
HETATM   27  F   UNL     1       5.808  -5.050  -1.221  1.00  0.00    -0.166 F 
HETATM   28  F   UNL     1       7.713  -5.143  -0.187  1.00  0.00    -0.166 F 
HETATM   29  F   UNL     1       5.944  -5.924   0.772  1.00  0.00    -0.166 F 
ENDBRANCH  23  26
ENDBRANCH   2  19
TORSDOF 5
