REMARK  8 active torsions:
REMARK  status: ('A' for Active; 'I' for Inactive)
REMARK    1  A    between atoms: C_3  and  C_21 
REMARK    2  A    between atoms: C_3  and  C_15 
REMARK       I    between atoms: N_6  and  C_7 
REMARK    3  A    between atoms: C_7  and  C_9 
REMARK    4  A    between atoms: C_21  and  C_22 
REMARK    5  A    between atoms: C_22  and  C_23 
REMARK    6  A    between atoms: C_23  and  N_24 
REMARK    7  A    between atoms: C_29  and  C_30 
REMARK    8  A    between atoms: C_29  and  N_36 
REMARK       I    between atoms: N_36  and  C_37 
REMARK       I    between atoms: C_37  and  N_38 
ROOT
HETATM    1  C   UNL     1       0.700   1.228  -0.538  1.00  0.00     0.017 C 
HETATM    2  C   UNL     1       1.534   0.006  -0.099  1.00  0.00     0.021 C 
HETATM    3  C   UNL     1      -0.749   1.217   0.010  1.00  0.00     0.003 C 
HETATM    4  C   UNL     1       0.819  -1.324  -0.349  1.00  0.00     0.126 C 
HETATM    5  C   UNL     1      -1.345  -0.216  -0.250  1.00  0.00     0.140 C 
HETATM    6  N   UNL     1      -0.508  -1.294   0.260  1.00  0.00    -0.347 N 
HETATM    7  C   UNL     1      -1.126  -2.286   1.020  1.00  0.00     0.253 C 
HETATM    8  O   UNL     1      -2.313  -2.219   1.356  1.00  0.00    -0.267 OA
ENDROOT
BRANCH   3   9
HETATM    9  C   UNL     1      -0.779   1.376   1.579  1.00  0.00     0.018 C 
BRANCH   9  10
HETATM   10  C   UNL     1      -0.061   2.529   2.314  1.00  0.00     0.031 C 
BRANCH  10  11
HETATM   11  C   UNL     1      -0.608   2.678   3.754  1.00  0.00     0.272 C 
BRANCH  11  12
HETATM   12  N   UNL     1      -1.267   3.945   4.138  1.00  0.00     0.088 N 
HETATM   13  C   UNL     1      -1.938   3.801   5.436  1.00  0.00     0.275 C 
HETATM   14  C   UNL     1      -3.174   2.887   5.389  1.00  0.00     0.066 C 
HETATM   15  C   UNL     1      -4.235   3.246   4.306  1.00  0.00     0.065 C 
HETATM   16  C   UNL     1      -3.472   3.677   2.993  1.00  0.00     0.066 C 
HETATM   17  C   UNL     1      -2.238   4.543   3.223  1.00  0.00     0.275 C 
BRANCH  15  18
HETATM   18  C   UNL     1      -5.162   2.029   3.954  1.00  0.00    -0.030 A 
HETATM   19  C   UNL     1      -6.426   1.841   4.540  1.00  0.00     0.010 A 
HETATM   20  C   UNL     1      -7.191   0.684   4.335  1.00  0.00     0.001 A 
HETATM   21  C   UNL     1      -6.760  -0.292   3.452  1.00  0.00     0.000 A 
HETATM   22  C   UNL     1      -5.564  -0.106   2.779  1.00  0.00     0.001 A 
HETATM   23  C   UNL     1      -4.773   1.019   3.047  1.00  0.00     0.010 A 
ENDBRANCH  15  18
BRANCH  15  24
HETATM   24  N   UNL     1      -5.033   4.447   4.704  1.00  0.00    -0.329 N 
HETATM   25  C   UNL     1      -5.847   4.957   5.630  1.00  0.00     0.318 C 
HETATM   26  N   UNL     1      -6.210   4.377   6.806  1.00  0.00    -0.343 N 
HETATM   27  O   UNL     1      -6.307   6.058   5.294  1.00  0.00    -0.247 OA
HETATM   28  C   UNL     1      -7.240   5.059   7.583  1.00  0.00     0.154 C 
HETATM   29  C   UNL     1      -5.741   3.161   7.452  1.00  0.00     0.154 C 
HETATM   30  H   UNL     1      -5.096   5.116   3.947  1.00  0.00     0.165 HD
ENDBRANCH  15  24
ENDBRANCH  11  12
ENDBRANCH  10  11
ENDBRANCH   9  10
ENDBRANCH   3   9
BRANCH   3  31
HETATM   31  C   UNL     1      -1.644   2.273  -0.716  1.00  0.00    -0.046 C 
HETATM   32  C   UNL     1      -1.611   3.635  -0.395  1.00  0.00     0.010 C 
HETATM   33  C   UNL     1      -2.575   4.541  -0.864  1.00  0.00     0.026 C 
HETATM   34  C   UNL     1      -3.547   4.131  -1.768  1.00  0.00     0.055 C 
HETATM   35  C   UNL     1      -3.511   2.825  -2.241  1.00  0.00     0.056 C 
HETATM   36 CL   UNL     1      -4.738   5.275  -2.261  1.00  0.00    -0.083 Cl
HETATM   37  C   UNL     1      -2.574   1.916  -1.719  1.00  0.00     0.033 C 
HETATM   38 CL   UNL     1      -4.591   2.252  -3.462  1.00  0.00    -0.083 Cl
ENDBRANCH   3  31
BRANCH   7  39
HETATM   39  C   UNL     1      -0.390  -3.497   1.443  1.00  0.00     0.032 A 
HETATM   40  C   UNL     1       0.852  -3.431   2.080  1.00  0.00     0.017 A 
HETATM   41  C   UNL     1       1.501  -4.610   2.456  1.00  0.00     0.001 A 
HETATM   42  C   UNL     1       0.890  -5.846   2.238  1.00  0.00     0.000 A 
HETATM   43  C   UNL     1      -0.376  -5.910   1.659  1.00  0.00     0.001 A 
HETATM   44  C   UNL     1      -1.018  -4.737   1.265  1.00  0.00     0.017 A 
ENDBRANCH   7  39
TORSDOF 8
