REMARK  10 active torsions:
REMARK  status: ('A' for Active; 'I' for Inactive)
REMARK    1  A    between atoms: C_3  and  N_22 
REMARK    2  A    between atoms: C_4  and  C_18 
REMARK    3  A    between atoms: C_12  and  O_16 
REMARK    4  A    between atoms: C_18  and  N_19 
REMARK    5  A    between atoms: N_19  and  C_20 
REMARK    6  A    between atoms: N_22  and  C_23 
REMARK    7  A    between atoms: C_23  and  C_24 
REMARK    8  A    between atoms: C_24  and  N_25 
REMARK    9  A    between atoms: N_25  and  C_26 
REMARK   10  A    between atoms: N_25  and  C_27 
ROOT
HETATM    1  C   UNL     1      -1.238  -0.594   0.089  1.00  0.00     0.054 A 
HETATM    2  C   UNL     1      -1.344   0.819   0.011  1.00  0.00     0.029 A 
HETATM    3  C   UNL     1      -2.417  -1.381   0.235  1.00  0.00     0.024 A 
HETATM    4  C   UNL     1      -2.620   1.466   0.061  1.00  0.00    -0.022 A 
HETATM    5  C   UNL     1      -3.648  -0.707   0.323  1.00  0.00     0.025 A 
HETATM    6  C   UNL     1      -3.755   0.673   0.215  1.00  0.00     0.012 A 
HETATM    7  C   UNL     1       0.092  -1.281  -0.047  1.00  0.00     0.197 C 
HETATM    8  C   UNL     1       1.390  -0.557  -0.003  1.00  0.00     0.035 A 
HETATM    9  S   UNL     1       0.074   1.892  -0.167  1.00  0.00    -0.088 SA
HETATM   10  C   UNL     1       1.462   0.830  -0.029  1.00  0.00     0.020 A 
HETATM   11  C   UNL     1       2.586  -1.301   0.031  1.00  0.00     0.053 A 
HETATM   12  C   UNL     1       3.838  -0.672   0.043  1.00  0.00     0.069 A 
HETATM   13  C   UNL     1       2.718   1.458  -0.000  1.00  0.00     0.023 A 
HETATM   14  C   UNL     1       3.898   0.717   0.035  1.00  0.00     0.038 A 
HETATM   15  O   UNL     1       0.132  -2.499  -0.232  1.00  0.00    -0.286 OA
ENDROOT
BRANCH   3  16
HETATM   16  N   UNL     1      -2.386  -2.793   0.427  1.00  0.00    -0.290 NA
HETATM   17  H   UNL     1      -1.506  -3.177   0.052  1.00  0.00     0.127 HD
BRANCH  16  18
HETATM   18  C   UNL     1      -3.595  -3.515   0.001  1.00  0.00     0.122 C 
BRANCH  18  19
HETATM   19  C   UNL     1      -3.467  -5.044  -0.060  1.00  0.00     0.287 C 
BRANCH  19  20
HETATM   20  N   UNL     1      -4.776  -5.762  -0.175  1.00  0.00     0.088 N 
BRANCH  20  21
HETATM   21  C   UNL     1      -5.527  -5.458  -1.411  1.00  0.00     0.268 C 
HETATM   22  C   UNL     1      -6.255  -4.113  -1.427  1.00  0.00     0.037 C 
ENDBRANCH  20  21
BRANCH  20  23
HETATM   23  C   UNL     1      -4.523  -7.216  -0.052  1.00  0.00     0.268 C 
HETATM   24  C   UNL     1      -5.784  -8.062   0.135  1.00  0.00     0.037 C 
ENDBRANCH  20  23
ENDBRANCH  19  20
ENDBRANCH  18  19
ENDBRANCH  16  18
ENDBRANCH   3  16
BRANCH   4  25
HETATM   25  C   UNL     1      -2.731   2.980  -0.032  1.00  0.00     0.162 C 
BRANCH  25  26
HETATM   26  N   UNL     1      -4.054   3.557   0.011  1.00  0.00    -0.364 N 
HETATM   27  H   UNL     1      -4.896   3.012  -0.106  1.00  0.00     0.162 HD
BRANCH  26  28
HETATM   28  C   UNL     1      -4.258   4.906  -0.016  1.00  0.00     0.348 C 
HETATM   29  O   UNL     1      -5.370   5.406  -0.064  1.00  0.00    -0.284 OA
ENDBRANCH  26  28
ENDBRANCH  25  26
ENDBRANCH   4  25
BRANCH  12  30
HETATM   30  O   UNL     1       4.919  -1.510   0.056  1.00  0.00    -0.356 OA
HETATM   31  C   UNL     1       6.205  -0.898   0.016  1.00  0.00     0.210 C 
ENDBRANCH  12  30
TORSDOF 10
