REMARK  4 active torsions:
REMARK  status: ('A' for Active; 'I' for Inactive)
REMARK    1  A    between atoms: C_2  and  N_15 
REMARK    2  A    between atoms: N_5  and  C_9 
REMARK    3  A    between atoms: N_15  and  C_16 
REMARK    4  A    between atoms: C_16  and  C_17 
REMARK       I    between atoms: C_17  and  N_19 
ROOT
HETATM    1  C   UNL     1      -0.775   2.044   3.515  1.00  0.00     0.249 C 
HETATM    2  O   UNL     1      -0.805   0.875   3.887  1.00  0.00    -0.271 OA
HETATM    3  N   UNL     1      -1.731   2.963   3.964  1.00  0.00    -0.328 N 
HETATM    4  C   UNL     1      -1.417   4.367   4.219  1.00  0.00     0.206 C 
HETATM    5  C   UNL     1      -2.913   2.592   4.757  1.00  0.00     0.200 C 
HETATM    6  C   UNL     1      -2.677   4.968   4.835  1.00  0.00     0.262 C 
HETATM    7  C   UNL     1      -3.735   3.891   4.740  1.00  0.00     0.121 C 
HETATM    8  F   UNL     1      -2.471   5.297   6.130  1.00  0.00    -0.204 F 
HETATM    9  F   UNL     1      -3.065   6.084   4.184  1.00  0.00    -0.204 F 
HETATM   10  C   UNL     1      -3.739   1.502   4.210  1.00  0.00     0.085 C 
HETATM   11  N   UNL     1      -4.468   0.693   3.793  1.00  0.00    -0.195 NA
ENDROOT
BRANCH   1  12
HETATM   12  C   UNL     1       0.225   2.627   2.463  1.00  0.00     0.372 C 
BRANCH  12  13
HETATM   13  N   UNL     1       1.030   1.634   1.697  1.00  0.00     0.097 N 
HETATM   14  H   UNL     1       2.032   1.746   1.813  1.00  0.00     0.317 HD
BRANCH  13  15
HETATM   15  C   UNL     1       0.596   1.529   0.285  1.00  0.00     0.225 C 
HETATM   16  C   UNL     1       1.415   0.950  -0.936  1.00  0.00     0.061 C 
HETATM   17  C   UNL     1       1.176  -0.574  -1.267  1.00  0.00     0.105 C 
HETATM   18  N   UNL     1       1.342  -1.075   0.074  1.00  0.00    -0.205 N 
HETATM   19  C   UNL     1      -0.142  -1.367  -1.654  1.00  0.00     0.028 C 
HETATM   20  C   UNL     1      -0.038  -0.929   0.628  1.00  0.00     0.105 C 
HETATM   21  C   UNL     1      -0.562   0.584   0.394  1.00  0.00     0.061 C 
HETATM   22  C   UNL     1      -0.939  -1.628  -0.363  1.00  0.00     0.028 C 
BRANCH  18  23
HETATM   23  C   UNL     1       2.486  -1.831   0.039  1.00  0.00     0.724 C 
HETATM   24  N   UNL     1       3.567  -1.084  -0.330  1.00  0.00    -0.075 NA
HETATM   25  C   UNL     1       4.497  -1.610  -1.143  1.00  0.00     0.138 C 
HETATM   26  C   UNL     1       4.513  -2.930  -1.471  1.00  0.00     0.040 C 
HETATM   27  C   UNL     1       3.514  -3.671  -0.877  1.00  0.00     0.138 C 
HETATM   28  N   UNL     1       2.472  -3.155  -0.161  1.00  0.00    -0.075 NA
ENDBRANCH  18  23
ENDBRANCH  13  15
ENDBRANCH  12  13
ENDBRANCH   1  12
TORSDOF 4
