REMARK  5 active torsions:
REMARK  status: ('A' for Active; 'I' for Inactive)
REMARK    1  A    between atoms: N_1  and  C_12 
REMARK    2  A    between atoms: C_2  and  C_6 
REMARK    3  A    between atoms: C_4  and  C_21 
REMARK    4  A    between atoms: C_5  and  C_23 
REMARK       I    between atoms: C_23  and  N_24 
REMARK    5  A    between atoms: N_24  and  N_26 
ROOT
HETATM    1  N   UNL     1       0.130  -1.405   0.143  1.00  0.00    -0.230 N 
HETATM    2  C   UNL     1       1.362  -0.780  -0.025  1.00  0.00     0.078 A 
HETATM    3  N   UNL     1      -0.887  -0.522   0.213  1.00  0.00    -0.161 NA
HETATM    4  C   UNL     1       1.090   0.581  -0.148  1.00  0.00     0.007 A 
HETATM    5  C   UNL     1      -0.330   0.690   0.072  1.00  0.00     0.149 A 
ENDROOT
BRANCH   5   6
HETATM    6  C   UNL     1      -1.109   1.946   0.197  1.00  0.00     0.269 C 
HETATM    7  N   UNL     1      -2.382   1.833   0.757  1.00  0.00    -0.170 NA
HETATM    8  H   UNL     1      -2.453   2.581   1.444  1.00  0.00     0.156 HD
HETATM    9  O   UNL     1      -0.612   3.060   0.016  1.00  0.00    -0.271 OA
BRANCH   7  10
HETATM   10  N   UNL     1      -3.550   1.912  -0.072  1.00  0.00    -0.341 N 
HETATM   11  C   UNL     1      -3.969   0.651  -0.681  1.00  0.00     0.137 C 
HETATM   12  C   UNL     1      -3.446   0.439  -2.101  1.00  0.00     0.021 C 
HETATM   13  C   UNL     1      -3.720   1.647  -2.987  1.00  0.00     0.003 C 
HETATM   14  C   UNL     1      -3.139   2.902  -2.348  1.00  0.00     0.021 C 
HETATM   15  C   UNL     1      -3.672   3.093  -0.929  1.00  0.00     0.137 C 
ENDBRANCH   7  10
ENDBRANCH   5   6
BRANCH   4  16
HETATM   16  C   UNL     1       1.994   1.757  -0.405  1.00  0.00     0.039 C 
HETATM   17  C   UNL     1       3.409   1.478  -0.878  1.00  0.00     0.010 C 
ENDBRANCH   4  16
BRANCH   1  18
HETATM   18  C   UNL     1      -0.134  -2.779   0.389  1.00  0.00     0.080 A 
HETATM   19  C   UNL     1      -1.144  -3.464  -0.303  1.00  0.00     0.064 A 
HETATM   20  C   UNL     1      -1.403  -4.808  -0.008  1.00  0.00     0.050 A 
HETATM   21 CL   UNL     1      -2.013  -2.794  -1.637  1.00  0.00    -0.082 Cl
HETATM   22  C   UNL     1      -0.663  -5.462   0.974  1.00  0.00     0.035 A 
HETATM   23  C   UNL     1       0.342  -4.791   1.665  1.00  0.00     0.026 A 
HETATM   24 CL   UNL     1      -0.985  -7.113   1.328  1.00  0.00    -0.084 Cl
HETATM   25  C   UNL     1       0.609  -3.451   1.375  1.00  0.00     0.035 A 
ENDBRANCH   1  18
BRANCH   2  26
HETATM   26  C   UNL     1       2.622  -1.514  -0.146  1.00  0.00    -0.007 A 
HETATM   27  C   UNL     1       3.554  -1.495   0.900  1.00  0.00     0.015 A 
HETATM   28  C   UNL     1       4.744  -2.219   0.799  1.00  0.00     0.020 A 
HETATM   29  C   UNL     1       5.005  -2.960  -0.353  1.00  0.00     0.011 A 
HETATM   30  C   UNL     1       4.090  -2.981  -1.403  1.00  0.00     0.020 A 
HETATM   31 BR   UNL     1       6.614  -3.943  -0.490  1.00  0.00    -0.051 Br
HETATM   32  C   UNL     1       2.899  -2.259  -1.300  1.00  0.00     0.015 A 
ENDBRANCH   2  26
TORSDOF 5
