REMARK  7 active torsions:
REMARK  status: ('A' for Active; 'I' for Inactive)
REMARK    1  A    between atoms: N_3  and  C_18 
REMARK    2  A    between atoms: C_4  and  N_7 
REMARK    3  A    between atoms: C_4  and  C_13 
REMARK       I    between atoms: C_13  and  N_15 
REMARK    4  A    between atoms: C_18  and  C_19 
REMARK    5  A    between atoms: C_19  and  C_21 
REMARK    6  A    between atoms: C_21  and  C_34 
REMARK       I    between atoms: N_25  and  C_26 
REMARK    7  A    between atoms: C_26  and  C_28 
ROOT
HETATM    1  O   UNL     1      -1.456   5.951   0.825  1.00  0.00    -0.372 OA
HETATM    2  C   UNL     1      -1.761   4.843  -0.079  1.00  0.00     0.105 C 
HETATM    3  C   UNL     1      -1.764   5.751   2.209  1.00  0.00     0.189 C 
HETATM    4  C   UNL     1      -3.218   4.299   0.210  1.00  0.00     0.169 C 
HETATM    5  C   UNL     1      -3.225   5.362   2.390  1.00  0.00     0.152 C 
HETATM    6  N   UNL     1      -3.487   4.133   1.650  1.00  0.00    -0.343 N 
HETATM    7  C   UNL     1      -3.296   2.945   2.375  1.00  0.00     0.254 C 
HETATM    8  O   UNL     1      -2.852   2.953   3.512  1.00  0.00    -0.267 OA
ENDROOT
BRANCH   2   9
HETATM    9  C   UNL     1      -0.637   3.768   0.130  1.00  0.00     0.075 C 
BRANCH   9  10
HETATM   10  C   UNL     1      -0.800   2.477  -0.676  1.00  0.00     0.276 C 
BRANCH  10  11
HETATM   11  N   UNL     1      -0.026   1.332  -0.157  1.00  0.00     0.088 N 
HETATM   12  C   UNL     1       1.292   1.246  -0.801  1.00  0.00     0.275 C 
HETATM   13  C   UNL     1       2.074  -0.043  -0.481  1.00  0.00     0.071 C 
HETATM   14  C   UNL     1       1.301  -1.391  -0.637  1.00  0.00     0.113 C 
HETATM   15  C   UNL     1      -0.058  -1.106   0.084  1.00  0.00     0.071 C 
HETATM   16  C   UNL     1      -0.767   0.111  -0.482  1.00  0.00     0.275 C 
BRANCH  14  17
HETATM   17  N   UNL     1       1.069  -1.760  -2.091  1.00  0.00    -0.396 N 
HETATM   18  C   UNL     1      -0.209  -2.391  -2.475  1.00  0.00     0.118 C 
HETATM   19  C   UNL     1      -0.288  -3.893  -2.231  1.00  0.00     0.019 C 
HETATM   20  C   UNL     1       0.827  -4.608  -2.973  1.00  0.00     0.003 C 
HETATM   21  C   UNL     1       2.180  -3.967  -2.684  1.00  0.00     0.019 C 
HETATM   22  C   UNL     1       2.152  -2.436  -2.815  1.00  0.00     0.118 C 
ENDBRANCH  14  17
BRANCH  14  23
HETATM   23  C   UNL     1       1.933  -2.581   0.207  1.00  0.00     0.247 C 
HETATM   24  O   UNL     1       1.154  -3.383   0.752  1.00  0.00    -0.271 OA
HETATM   25  N   UNL     1       3.303  -2.814   0.345  1.00  0.00    -0.359 N 
HETATM   26  C   UNL     1       4.428  -2.143  -0.283  1.00  0.00     0.152 C 
HETATM   27  C   UNL     1       3.709  -3.972   1.138  1.00  0.00     0.152 C 
ENDBRANCH  14  23
ENDBRANCH  10  11
ENDBRANCH   9  10
ENDBRANCH   2   9
BRANCH   2  28
HETATM   28  C   UNL     1      -1.696   5.478  -1.498  1.00  0.00    -0.021 A 
HETATM   29  C   UNL     1      -1.479   6.867  -1.660  1.00  0.00     0.035 A 
HETATM   30  C   UNL     1      -1.317   7.457  -2.922  1.00  0.00     0.056 A 
HETATM   31  C   UNL     1      -1.357   6.663  -4.066  1.00  0.00     0.055 A 
HETATM   32 CL   UNL     1      -1.065   9.166  -2.989  1.00  0.00    -0.083 Cl
HETATM   33  C   UNL     1      -1.627   5.301  -3.940  1.00  0.00     0.026 A 
HETATM   34 CL   UNL     1      -1.090   7.295  -5.650  1.00  0.00    -0.083 Cl
HETATM   35  C   UNL     1      -1.833   4.727  -2.676  1.00  0.00     0.012 A 
ENDBRANCH   2  28
BRANCH   7  36
HETATM   36  C   UNL     1      -3.698   1.627   1.812  1.00  0.00     0.032 A 
HETATM   37  C   UNL     1      -4.815   1.469   0.987  1.00  0.00     0.017 A 
HETATM   38  C   UNL     1      -5.205   0.189   0.578  1.00  0.00     0.001 A 
HETATM   39  C   UNL     1      -4.495  -0.936   1.005  1.00  0.00     0.000 A 
HETATM   40  C   UNL     1      -3.401  -0.787   1.854  1.00  0.00     0.001 A 
HETATM   41  C   UNL     1      -3.007   0.490   2.260  1.00  0.00     0.017 A 
ENDBRANCH   7  36
TORSDOF 7
