REMARK  2 active torsions:
REMARK  status: ('A' for Active; 'I' for Inactive)
REMARK       I    between atoms: N_9  and  C_10 
REMARK    1  A    between atoms: C_10  and  O_12 
REMARK    2  A    between atoms: O_12  and  C_13 
ROOT
HETATM    1  N   UNL     1       0.213   1.361  -0.135  1.00  0.00     0.090 N 
HETATM    2  C   UNL     1       1.282   0.864   0.740  1.00  0.00     0.274 C 
HETATM    3  C   UNL     1      -1.122   1.222   0.485  1.00  0.00     0.292 C 
HETATM    4  C   UNL     1       0.291   0.703  -1.444  1.00  0.00     0.274 C 
HETATM    5  C   UNL     1       1.187  -0.629   1.052  1.00  0.00     0.055 C 
HETATM    6  C   UNL     1      -1.898  -0.096   0.258  1.00  0.00     0.158 C 
HETATM    7  C   UNL     1       0.449  -0.821  -1.362  1.00  0.00     0.055 C 
HETATM    8  C   UNL     1       0.276  -1.365   0.063  1.00  0.00     0.092 C 
HETATM    9  N   UNL     1      -1.120  -1.307   0.526  1.00  0.00    -0.321 N 
HETATM   10  C   UNL     1      -1.623  -2.376   1.262  1.00  0.00     0.368 C 
HETATM   11  O   UNL     1      -0.927  -3.309   1.649  1.00  0.00    -0.238 OA
ENDROOT
BRANCH  10  12
HETATM   12  O   UNL     1      -2.999  -2.275   1.487  1.00  0.00    -0.261 OA
BRANCH  12  13
HETATM   13  C   UNL     1      -3.740  -3.314   2.091  1.00  0.00     0.081 A 
HETATM   14  C   UNL     1      -3.450  -4.667   1.911  1.00  0.00     0.039 A 
HETATM   15  C   UNL     1      -4.261  -5.632   2.511  1.00  0.00     0.022 A 
HETATM   16  C   UNL     1      -5.367  -5.237   3.263  1.00  0.00     0.011 A 
HETATM   17  C   UNL     1      -5.674  -3.885   3.419  1.00  0.00     0.022 A 
HETATM   18 BR   UNL     1      -6.467  -6.547   4.068  1.00  0.00    -0.051 Br
HETATM   19  C   UNL     1      -4.858  -2.918   2.827  1.00  0.00     0.039 A 
ENDBRANCH  12  13
ENDBRANCH  10  12
TORSDOF 2
