REMARK  7 active torsions:
REMARK  status: ('A' for Active; 'I' for Inactive)
REMARK    1  A    between atoms: CA_7  and  N_20 
REMARK    2  A    between atoms: CA_10  and  C_16 
REMARK    3  A    between atoms: C_16  and  O_17 
REMARK       I    between atoms: N_20  and  C_21 
REMARK    4  A    between atoms: C_21  and  C_22 
REMARK    5  A    between atoms: C_22  and  S_25 
REMARK    6  A    between atoms: C_22  and  C_24 
REMARK    7  A    between atoms: S_25  and  C_28 
ROOT
HETATM    1  C   UNL     1      -0.010   1.810   8.582  1.00  0.00     0.122 C 
HETATM    2  N   UNL     1       0.957   2.576   7.776  1.00  0.00    -0.327 N 
HETATM    3  C   UNL     1      -0.948   2.515   9.550  1.00  0.00    -0.029 A 
HETATM    4  C   UNL     1       0.644   3.703   7.049  1.00  0.00     0.244 C 
HETATM    5  C   UNL     1      -1.531   3.779   9.412  1.00  0.00    -0.047 A 
HETATM    6  C   UNL     1      -1.334   4.733   8.270  1.00  0.00     0.074 C 
HETATM    7  CA  UNL     1      -0.778   4.249   6.949  1.00  0.00     0.181 C 
HETATM    8  C   UNL     1      -0.667   0.680   7.767  1.00  0.00     0.030 C 
HETATM    9  C   UNL     1       0.398  -0.214   7.130  1.00  0.00     0.005 C 
HETATM   10  CA  UNL     1       2.064   1.698   7.270  1.00  0.00     0.185 C 
HETATM   11  C   UNL     1       1.440   0.609   6.363  1.00  0.00     0.036 C 
HETATM   12  C   UNL     1      -1.245   1.784  10.734  1.00  0.00     0.010 A 
HETATM   13  C   UNL     1      -2.038   2.297  11.760  1.00  0.00     0.001 A 
HETATM   14  C   UNL     1      -2.327   4.289  10.470  1.00  0.00     0.008 A 
HETATM   15  C   UNL     1      -2.575   3.563  11.631  1.00  0.00     0.001 A 
HETATM   16  O   UNL     1       1.550   4.327   6.483  1.00  0.00    -0.271 OA
ENDROOT
BRANCH   7  17
HETATM   17  N   UNL     1      -1.660   3.398   6.163  1.00  0.00    -0.346 N 
HETATM   18  C   UNL     1      -1.503   3.356   4.791  1.00  0.00     0.233 C 
HETATM   19  O   UNL     1      -0.576   3.966   4.262  1.00  0.00    -0.272 OA
HETATM   20  H   UNL     1      -2.318   2.770   6.620  1.00  0.00     0.163 HD
BRANCH  18  21
HETATM   21  C   UNL     1      -2.477   2.473   3.989  1.00  0.00     0.150 C 
BRANCH  21  22
HETATM   22  S   UNL     1      -4.216   3.008   4.290  1.00  0.00    -0.078 SA
BRANCH  22  23
HETATM   23  C   UNL     1      -4.574   2.209   5.809  1.00  0.00     0.182 C 
HETATM   24  O   UNL     1      -3.721   1.587   6.432  1.00  0.00    -0.286 OA
HETATM   25  C   UNL     1      -5.957   2.448   6.342  1.00  0.00     0.104 C 
ENDBRANCH  22  23
ENDBRANCH  21  22
BRANCH  21  26
HETATM   26  C   UNL     1      -2.200   2.499   2.452  1.00  0.00     0.001 C 
HETATM   27  C   UNL     1      -0.849   1.859   2.094  1.00  0.00     0.011 C 
HETATM   28  C   UNL     1      -2.307   3.884   1.791  1.00  0.00     0.011 C 
ENDBRANCH  21  26
ENDBRANCH  18  21
ENDBRANCH   7  17
BRANCH  10  29
HETATM   29  C   UNL     1       3.457   2.086   6.699  1.00  0.00     0.163 C 
HETATM   30  OXT UNL     1       4.306   1.229   6.458  1.00  0.00    -0.648 OA
BRANCH  29  31
HETATM   31  O   UNL     1       3.731   3.378   6.480  1.00  0.00    -0.775 OA
HETATM   32  H   UNL     1       2.931   3.955   6.530  1.00  0.00     0.167 HD
ENDBRANCH  29  31
ENDBRANCH  10  29
TORSDOF 7
