REMARK  9 active torsions:
REMARK  status: ('A' for Active; 'I' for Inactive)
REMARK    1  A    between atoms: C_7  and  N_10 
REMARK    2  A    between atoms: C_7  and  C_18 
REMARK    3  A    between atoms: N_9  and  S_25 
REMARK    4  A    between atoms: C_11  and  C_39 
REMARK    5  A    between atoms: C_14  and  O_38 
REMARK    6  A    between atoms: C_20  and  O_21 
REMARK    7  A    between atoms: S_25  and  C_28 
REMARK    8  A    between atoms: C_30  and  O_34 
REMARK    9  A    between atoms: C_33  and  O_36 
REMARK       I    between atoms: C_39  and  N_40 
ROOT
HETATM    1  C   UNL     1       0.087  -0.521  -0.104  1.00  0.00     0.014 A 
HETATM    2  C   UNL     1      -0.472   0.755   0.009  1.00  0.00     0.063 A 
HETATM    3  C   UNL     1       1.479  -0.644  -0.152  1.00  0.00     0.036 A 
HETATM    4  C   UNL     1       0.344   1.889   0.059  1.00  0.00     0.033 A 
HETATM    5  C   UNL     1       2.293   0.488  -0.123  1.00  0.00     0.034 A 
HETATM    6  C   UNL     1       1.730   1.755  -0.029  1.00  0.00     0.026 A 
HETATM    7  C   UNL     1      -0.991  -1.615  -0.093  1.00  0.00     0.172 C 
HETATM    8  C   UNL     1      -2.272  -0.608  -0.207  1.00  0.00     0.276 C 
HETATM    9  N   UNL     1      -1.902   0.715   0.145  1.00  0.00    -0.201 N 
HETATM   10 CL   UNL     1       4.003   0.315  -0.149  1.00  0.00    -0.084 Cl
HETATM   11  O   UNL     1      -3.399  -0.923  -0.559  1.00  0.00    -0.268 OA
ENDROOT
BRANCH   7  12
HETATM   12  N   UNL     1      -0.936  -2.457  -1.360  1.00  0.00    -0.373 N 
HETATM   13  C   UNL     1      -2.193  -3.070  -1.847  1.00  0.00     0.151 C 
HETATM   14  C   UNL     1      -1.895  -4.515  -2.249  1.00  0.00     0.138 C 
HETATM   15  C   UNL     1      -0.410  -4.532  -2.494  1.00  0.00     0.068 C 
HETATM   16  C   UNL     1       0.125  -3.482  -1.518  1.00  0.00     0.176 C 
BRANCH  14  17
HETATM   17  O   UNL     1      -2.229  -5.425  -1.202  1.00  0.00    -0.394 OA
HETATM   18  H   UNL     1      -1.706  -5.201  -0.413  1.00  0.00     0.210 HD
ENDBRANCH  14  17
BRANCH  16  19
HETATM   19  C   UNL     1       1.478  -2.992  -2.058  1.00  0.00     0.241 C 
HETATM   20  N   UNL     1       1.580  -2.063  -3.084  1.00  0.00    -0.359 N 
HETATM   21  C   UNL     1       2.911  -1.603  -3.452  1.00  0.00     0.152 C 
HETATM   22  C   UNL     1       0.525  -1.666  -4.003  1.00  0.00     0.152 C 
HETATM   23  O   UNL     1       2.496  -3.486  -1.552  1.00  0.00    -0.271 OA
ENDBRANCH  16  19
ENDBRANCH   7  12
BRANCH   7  24
HETATM   24  C   UNL     1      -1.115  -2.441   1.244  1.00  0.00     0.017 A 
HETATM   25  C   UNL     1      -2.255  -3.254   1.450  1.00  0.00     0.013 A 
HETATM   26  C   UNL     1      -2.383  -4.124   2.539  1.00  0.00     0.001 A 
HETATM   27  C   UNL     1      -1.384  -4.191   3.492  1.00  0.00     0.003 A 
HETATM   28  C   UNL     1      -0.288  -3.345   3.382  1.00  0.00     0.037 A 
HETATM   29  C   UNL     1      -0.154  -2.463   2.293  1.00  0.00     0.077 A 
BRANCH  29  30
HETATM   30  O   UNL     1       0.847  -1.534   2.284  1.00  0.00    -0.355 OA
HETATM   31  C   UNL     1       2.024  -1.782   3.048  1.00  0.00     0.210 C 
ENDBRANCH  29  30
ENDBRANCH   7  24
BRANCH   9  32
HETATM   32  S   UNL     1      -2.736   2.156  -0.022  1.00  0.00     0.274 S 
HETATM   33  O   UNL     1      -2.345   2.967   1.120  1.00  0.00    -0.199 OA
HETATM   34  O   UNL     1      -2.450   2.620  -1.369  1.00  0.00    -0.199 OA
BRANCH  32  35
HETATM   35  C   UNL     1      -4.501   2.042   0.112  1.00  0.00     0.113 C 
HETATM   36  C   UNL     1      -5.108   0.900   0.640  1.00  0.00     0.031 C 
HETATM   37  C   UNL     1      -6.488   0.704   0.511  1.00  0.00     0.038 C 
HETATM   38  C   UNL     1      -7.300   1.688  -0.045  1.00  0.00     0.070 C 
HETATM   39  C   UNL     1      -6.716   2.888  -0.442  1.00  0.00     0.075 C 
HETATM   40  C   UNL     1      -5.321   3.080  -0.373  1.00  0.00     0.094 C 
BRANCH  38  41
HETATM   41  O   UNL     1      -8.620   1.353  -0.157  1.00  0.00    -0.356 OA
HETATM   42  C   UNL     1      -9.511   2.362  -0.617  1.00  0.00     0.210 C 
ENDBRANCH  38  41
BRANCH  40  43
HETATM   43  O   UNL     1      -4.950   4.284  -0.914  1.00  0.00    -0.354 OA
HETATM   44  C   UNL     1      -3.994   5.080  -0.220  1.00  0.00     0.210 C 
ENDBRANCH  40  43
ENDBRANCH  32  35
ENDBRANCH   9  32
TORSDOF 9
