REMARK  4 active torsions:
REMARK  status: ('A' for Active; 'I' for Inactive)
REMARK    1  A    between atoms: C_8  and  C_11 
REMARK    2  A    between atoms: N_9  and  C_12 
REMARK       I    between atoms: C_11  and  N_21 
REMARK    3  A    between atoms: C_12  and  C_13 
REMARK    4  A    between atoms: N_21  and  C_22 
ROOT
HETATM    1  C   UNL     1      -0.311   0.896   0.042  1.00  0.00    -0.004 C 
HETATM    2  C   UNL     1      -0.224  -0.455  -0.311  1.00  0.00     0.045 C 
HETATM    3  C   UNL     1       0.840   1.704   0.095  1.00  0.00     0.056 C 
HETATM    4  C   UNL     1       1.008  -0.967  -0.767  1.00  0.00     0.033 C 
HETATM    5  C   UNL     1       2.066   1.142  -0.222  1.00  0.00     0.117 C 
HETATM    6  C   UNL     1       2.155  -0.165  -0.667  1.00  0.00     0.044 C 
HETATM    7  C   UNL     1      -1.670   1.177   0.227  1.00  0.00     0.049 C 
HETATM    8  C   UNL     1      -2.425   0.019   0.073  1.00  0.00     0.104 C 
HETATM    9  N   UNL     1      -1.482  -1.018  -0.073  1.00  0.00    -0.337 N 
HETATM   10  F   UNL     1       3.175   1.887  -0.123  1.00  0.00    -0.206 F 
ENDROOT
BRANCH   8  11
HETATM   11  C   UNL     1      -3.895   0.100   0.112  1.00  0.00     0.273 C 
HETATM   12  O   UNL     1      -4.405   1.216   0.227  1.00  0.00    -0.266 OA
HETATM   13  N   UNL     1      -4.667  -1.048   0.019  1.00  0.00    -0.322 N 
HETATM   14  H   UNL     1      -4.215  -1.941  -0.004  1.00  0.00     0.169 HD
BRANCH  13  15
HETATM   15  C   UNL     1      -6.093  -1.107  -0.008  1.00  0.00     0.035 A 
HETATM   16  C   UNL     1      -6.693  -2.380  -0.005  1.00  0.00     0.043 A 
HETATM   17  C   UNL     1      -8.103  -2.504  -0.037  1.00  0.00    -0.006 A 
HETATM   18  C   UNL     1      -8.878  -1.347  -0.073  1.00  0.00     0.042 A 
HETATM   19  C   UNL     1      -9.009  -3.603  -0.043  1.00  0.00     0.030 A 
HETATM   20  C   UNL     1      -8.317  -0.072  -0.077  1.00  0.00     0.033 A 
HETATM   21  N   UNL     1     -10.198  -1.731  -0.103  1.00  0.00    -0.365 N 
HETATM   22  C   UNL     1      -6.919   0.022  -0.047  1.00  0.00     0.032 A 
HETATM   23  C   UNL     1     -10.289  -3.097  -0.087  1.00  0.00     0.089 A 
HETATM   24  H   UNL     1     -10.980  -1.091  -0.135  1.00  0.00     0.165 HD
ENDBRANCH  13  15
ENDBRANCH   8  11
BRANCH   9  25
HETATM   25  C   UNL     1      -1.845  -2.442   0.092  1.00  0.00     0.168 C 
BRANCH  25  26
HETATM   26  C   UNL     1      -0.836  -3.571   0.136  1.00  0.00    -0.037 C 
HETATM   27  C   UNL     1      -1.236  -4.820  -0.389  1.00  0.00     0.009 C 
HETATM   28  C   UNL     1      -0.363  -5.911  -0.442  1.00  0.00     0.004 C 
HETATM   29  C   UNL     1       0.939  -5.771   0.020  1.00  0.00     0.042 C 
HETATM   30  C   UNL     1       1.316  -4.578   0.620  1.00  0.00     0.117 C 
HETATM   31  C   UNL     1       0.422  -3.513   0.746  1.00  0.00     0.051 C 
HETATM   32  F   UNL     1       2.573  -4.437   1.062  1.00  0.00    -0.206 F 
ENDBRANCH  25  26
ENDBRANCH   9  25
TORSDOF 4
