REMARK  9 active torsions:
REMARK  status: ('A' for Active; 'I' for Inactive)
REMARK    1  A    between atoms: C_5  and  O_12 
REMARK    2  A    between atoms: C_7  and  O_31 
REMARK    3  A    between atoms: O_12  and  C_13 
REMARK    4  A    between atoms: C_13  and  N_14 
REMARK    5  A    between atoms: C_17  and  O_29 
REMARK    6  A    between atoms: C_20  and  C_24 
REMARK    7  A    between atoms: O_31  and  C_32 
REMARK    8  A    between atoms: C_32  and  C_33 
REMARK    9  A    between atoms: C_33  and  N_34 
ROOT
HETATM    1  C   UNL     1       0.483  -0.452   0.055  1.00  0.00     0.173 A 
HETATM    2  N   UNL     1       0.344   0.933  -0.003  1.00  0.00    -0.271 N 
HETATM    3  N   UNL     1       1.635  -1.041   0.072  1.00  0.00    -0.203 NA
HETATM    4  C   UNL     1       1.468   1.738   0.023  1.00  0.00     0.257 A 
HETATM    5  C   UNL     1       2.772  -0.291   0.004  1.00  0.00     0.173 A 
HETATM    6  C   UNL     1       2.764   1.044  -0.008  1.00  0.00     0.133 A 
HETATM    7  C   UNL     1      -0.784  -1.282   0.102  1.00  0.00     0.115 A 
HETATM    8  C   UNL     1      -1.949  -0.613  -0.032  1.00  0.00     0.042 A 
HETATM    9  C   UNL     1      -0.901   1.535  -0.087  1.00  0.00     0.102 A 
HETATM   10  C   UNL     1      -2.021   0.815  -0.132  1.00  0.00     0.021 A 
HETATM   11  O   UNL     1       1.466   2.968   0.056  1.00  0.00    -0.268 OA
ENDROOT
BRANCH   5  12
HETATM   12  O   UNL     1       3.897  -1.057  -0.049  1.00  0.00    -0.313 OA
BRANCH  12  13
HETATM   13  C   UNL     1       5.188  -0.523  -0.266  1.00  0.00     0.323 C 
BRANCH  13  14
HETATM   14  N   UNL     1       6.134  -1.623  -0.357  1.00  0.00    -0.213 N 
HETATM   15  S   UNL     1       5.567  -3.194  -0.326  1.00  0.00     0.270 S 
HETATM   16  C   UNL     1       7.162  -3.861  -0.449  1.00  0.00     0.099 A 
HETATM   17  O   UNL     1       4.884  -3.498  -1.561  1.00  0.00    -0.200 OA
HETATM   18  O   UNL     1       5.078  -3.525   0.992  1.00  0.00    -0.200 OA
HETATM   19  C   UNL     1       7.420  -5.216  -0.436  1.00  0.00     0.063 A 
HETATM   20  C   UNL     1       8.140  -2.873  -0.529  1.00  0.00     0.063 A 
HETATM   21  C   UNL     1       8.744  -5.614  -0.504  1.00  0.00     0.070 A 
HETATM   22  C   UNL     1       9.763  -4.641  -0.557  1.00  0.00     0.045 A 
HETATM   23  C   UNL     1       9.491  -3.244  -0.569  1.00  0.00    -0.035 A 
HETATM   24  C   UNL     1       7.526  -1.510  -0.546  1.00  0.00     0.271 A 
HETATM   25  O   UNL     1       8.104  -0.457  -0.704  1.00  0.00    -0.266 OA
BRANCH  21  26
HETATM   26  O   UNL     1       8.915  -6.968  -0.501  1.00  0.00    -0.356 OA
HETATM   27  C   UNL     1      10.238  -7.462  -0.652  1.00  0.00     0.210 C 
ENDBRANCH  21  26
BRANCH  23  28
HETATM   28  C   UNL     1      10.618  -2.215  -0.618  1.00  0.00     0.011 C 
HETATM   29  C   UNL     1      10.748  -1.447   0.705  1.00  0.00     0.015 C 
HETATM   30  C   UNL     1      12.003  -2.791  -0.962  1.00  0.00     0.015 C 
ENDBRANCH  23  28
ENDBRANCH  13  14
ENDBRANCH  12  13
ENDBRANCH   5  12
BRANCH   7  31
HETATM   31  O   UNL     1      -0.649  -2.669   0.290  1.00  0.00    -0.345 OA
BRANCH  31  32
HETATM   32  C   UNL     1      -1.892  -3.296   0.595  1.00  0.00     0.206 C 
BRANCH  32  33
HETATM   33  C   UNL     1      -1.929  -4.825   0.688  1.00  0.00     0.299 C 
BRANCH  33  34
HETATM   34  N   UNL     1      -3.291  -5.425   0.674  1.00  0.00     0.090 N 
HETATM   35  C   UNL     1      -3.774  -5.801  -0.657  1.00  0.00     0.272 C 
HETATM   36  C   UNL     1      -4.129  -4.609  -1.538  1.00  0.00     0.030 C 
HETATM   37  C   UNL     1      -5.095  -3.634  -0.861  1.00  0.00     0.003 C 
HETATM   38  C   UNL     1      -4.944  -3.482   0.657  1.00  0.00     0.030 C 
HETATM   39  C   UNL     1      -4.341  -4.691   1.391  1.00  0.00     0.272 C 
ENDBRANCH  33  34
ENDBRANCH  32  33
ENDBRANCH  31  32
ENDBRANCH   7  31
TORSDOF 9
