REMARK  8 active torsions:
REMARK  status: ('A' for Active; 'I' for Inactive)
REMARK    1  A    between atoms: C_1  and  O_9 
REMARK    2  A    between atoms: C_2  and  C_11 
REMARK    3  A    between atoms: C_3  and  O_7 
REMARK    4  A    between atoms: C_11  and  C_12 
REMARK    5  A    between atoms: C_11  and  O_13 
REMARK    6  A    between atoms: N_16  and  C_19 
REMARK    7  A    between atoms: C_19  and  C_20 
REMARK    8  A    between atoms: C_20  and  C_23 
ROOT
HETATM    1  C   UNL     1      -0.662  -3.565  -0.950  1.00  0.00     0.022 C 
HETATM    2  C   UNL     1      -0.955  -5.058  -0.697  1.00  0.00     0.037 C 
HETATM    3  C   UNL     1       0.308  -5.921  -0.610  1.00  0.00     0.273 C 
HETATM    4  N   UNL     1       1.197  -5.786  -1.771  1.00  0.00     0.088 N 
HETATM    5  C   UNL     1       0.372  -3.423  -2.082  1.00  0.00     0.037 C 
HETATM    6  C   UNL     1       1.567  -4.376  -1.978  1.00  0.00     0.273 C 
ENDROOT
BRANCH   1   7
HETATM    7  C   UNL     1      -0.335  -2.824   0.376  1.00  0.00     0.158 C 
BRANCH   7   8
HETATM    8  C   UNL     1      -0.043  -1.335   0.248  1.00  0.00     0.007 A 
HETATM    9  C   UNL     1       1.251  -0.760   0.141  1.00  0.00     0.110 A 
HETATM   10  C   UNL     1       1.394   0.635   0.005  1.00  0.00     0.102 A 
HETATM   11  C   UNL     1       0.248   1.445   0.026  1.00  0.00     0.039 A 
HETATM   12  C   UNL     1      -1.024   0.897   0.134  1.00  0.00     0.003 A 
HETATM   13  C   UNL     1      -1.166  -0.481   0.235  1.00  0.00     0.013 A 
BRANCH   9  14
HETATM   14  O   UNL     1       2.339  -1.598   0.077  1.00  0.00    -0.352 OA
HETATM   15  C   UNL     1       2.929  -1.811   1.365  1.00  0.00     0.210 C 
ENDBRANCH   9  14
BRANCH  10  16
HETATM   16  O   UNL     1       2.527   1.388  -0.132  1.00  0.00    -0.353 OA
HETATM   17  C   UNL     1       3.732   0.786  -0.567  1.00  0.00     0.210 C 
ENDBRANCH  10  16
ENDBRANCH   7   8
BRANCH   7  18
HETATM   18  O   UNL     1       0.631  -3.499   1.161  1.00  0.00    -0.390 OA
HETATM   19  H   UNL     1       1.422  -3.566   0.602  1.00  0.00     0.210 HD
ENDBRANCH   7  18
ENDBRANCH   1   7
BRANCH   4  20
HETATM   20  C   UNL     1       0.657  -6.379  -3.010  1.00  0.00     0.277 C 
BRANCH  20  21
HETATM   21  C   UNL     1       0.323  -7.880  -2.911  1.00  0.00     0.068 C 
BRANCH  21  22
HETATM   22  C   UNL     1      -0.124  -8.539  -4.202  1.00  0.00    -0.056 A 
HETATM   23  C   UNL     1      -0.708  -7.826  -5.260  1.00  0.00     0.010 A 
HETATM   24  C   UNL     1      -1.149  -8.490  -6.407  1.00  0.00     0.043 A 
HETATM   25  C   UNL     1      -1.019  -9.868  -6.492  1.00  0.00     0.116 A 
HETATM   26  C   UNL     1      -0.462 -10.600  -5.455  1.00  0.00     0.043 A 
HETATM   27  F   UNL     1      -1.449 -10.502  -7.593  1.00  0.00    -0.206 F 
HETATM   28  C   UNL     1      -0.018  -9.937  -4.308  1.00  0.00     0.010 A 
ENDBRANCH  21  22
ENDBRANCH  20  21
ENDBRANCH   4  20
TORSDOF 8
