REMARK  5 active torsions:
REMARK  status: ('A' for Active; 'I' for Inactive)
REMARK    1  A    between atoms: C_7  and  N_17 
REMARK    2  A    between atoms: C_8  and  C_10 
REMARK    3  A    between atoms: C_8  and  C_11 
REMARK    4  A    between atoms: C_11  and  O_18 
REMARK    5  A    between atoms: O_18  and  C_19 
ROOT
HETATM    1  C   UNL     1      -0.211   0.584  -0.246  1.00  0.00     0.012 A 
HETATM    2  C   UNL     1      -0.075  -0.780  -0.068  1.00  0.00     0.079 A 
HETATM    3  C   UNL     1       0.889   1.425  -0.163  1.00  0.00     0.012 A 
HETATM    4  C   UNL     1       1.152  -1.364   0.170  1.00  0.00     0.037 A 
HETATM    5  C   UNL     1       2.138   0.858   0.097  1.00  0.00     0.001 A 
HETATM    6  C   UNL     1       2.270  -0.531   0.251  1.00  0.00     0.003 A 
HETATM    7  C   UNL     1      -1.615   0.883  -0.641  1.00  0.00     0.303 C 
HETATM    8  C   UNL     1      -2.320  -0.467  -0.193  1.00  0.00     0.216 C 
HETATM    9  O   UNL     1      -1.246  -1.480  -0.184  1.00  0.00    -0.322 OA
ENDROOT
BRANCH   8  10
HETATM   10  C   UNL     1      -3.384  -0.927  -1.204  1.00  0.00    -0.011 A 
HETATM   11  C   UNL     1      -3.511  -2.287  -1.546  1.00  0.00     0.011 A 
HETATM   12  C   UNL     1      -4.376  -2.698  -2.563  1.00  0.00     0.001 A 
HETATM   13  C   UNL     1      -5.147  -1.762  -3.246  1.00  0.00     0.000 A 
HETATM   14  C   UNL     1      -5.076  -0.420  -2.891  1.00  0.00     0.001 A 
HETATM   15  C   UNL     1      -4.213  -0.008  -1.872  1.00  0.00     0.011 A 
ENDBRANCH   8  10
BRANCH   8  16
HETATM   16  C   UNL     1      -2.866  -0.411   1.260  1.00  0.00     0.301 C 
HETATM   17  O   UNL     1      -2.486  -1.107   2.197  1.00  0.00    -0.261 OA
BRANCH  16  18
HETATM   18  O   UNL     1      -3.777   0.597   1.427  1.00  0.00    -0.319 OA
BRANCH  18  19
HETATM   19  C   UNL     1      -3.450   1.483   2.508  1.00  0.00     0.174 C 
HETATM   20  C   UNL     1      -4.221   1.236   3.784  1.00  0.00     0.034 C 
ENDBRANCH  18  19
ENDBRANCH  16  18
ENDBRANCH   8  16
BRANCH   7  21
HETATM   21  N   UNL     1      -2.046   2.214  -0.195  1.00  0.00     0.091 N 
HETATM   22  H   UNL     1      -1.702   2.389   0.747  1.00  0.00     0.313 HD
HETATM   23  H   UNL     1      -3.063   2.250  -0.145  1.00  0.00     0.313 HD
ENDBRANCH   7  21
TORSDOF 5
