REMARK  13 active torsions:
REMARK  status: ('A' for Active; 'I' for Inactive)
REMARK    1  A    between atoms: C_2  and  N_7 
REMARK    2  A    between atoms: C_3  and  N_19 
REMARK    3  A    between atoms: C_4  and  S_34 
REMARK    4  A    between atoms: C_5  and  C_27 
REMARK    5  A    between atoms: C_12  and  C_13 
REMARK    6  A    between atoms: N_19  and  C_20 
REMARK    7  A    between atoms: N_19  and  C_21 
REMARK    8  A    between atoms: C_20  and  C_23 
REMARK    9  A    between atoms: C_23  and  N_24 
REMARK       I    between atoms: C_27  and  N_29 
REMARK   10  A    between atoms: N_29  and  C_30 
REMARK   11  A    between atoms: N_29  and  C_31 
REMARK   12  A    between atoms: S_34  and  C_36 
REMARK   13  A    between atoms: C_36  and  C_38 
ROOT
HETATM    1  C   UNL     1      -0.612   0.868  -0.076  1.00  0.00     0.061 C 
HETATM    2  C   UNL     1      -1.496  -0.271  -0.025  1.00  0.00     0.054 C 
HETATM    3  C   UNL     1       0.812   0.945  -0.351  1.00  0.00     0.047 C 
HETATM    4  C   UNL     1      -0.803  -1.488  -0.041  1.00  0.00     0.087 C 
HETATM    5  C   UNL     1       1.403  -0.331  -0.489  1.00  0.00     0.054 C 
HETATM    6  C   UNL     1       0.610  -1.468  -0.210  1.00  0.00     0.044 C 
ENDROOT
BRANCH   2   7
HETATM    7  N   UNL     1      -2.859   0.006   0.086  1.00  0.00    -0.380 N 
HETATM    8  C   UNL     1      -3.882  -0.973   0.432  1.00  0.00     0.123 C 
HETATM    9  C   UNL     1      -4.581  -1.384  -0.872  1.00  0.00     0.029 C 
HETATM   10  C   UNL     1      -5.453  -0.224  -1.375  1.00  0.00     0.021 C 
HETATM   11  C   UNL     1      -4.495   0.972  -1.594  1.00  0.00     0.029 C 
HETATM   12  C   UNL     1      -3.501   1.250  -0.442  1.00  0.00     0.123 C 
BRANCH  10  13
HETATM   13  C   UNL     1      -6.669  -0.043  -0.467  1.00  0.00    -0.054 A 
HETATM   14  C   UNL     1      -7.429  -1.179  -0.113  1.00  0.00     0.007 A 
HETATM   15  C   UNL     1      -8.454  -1.111   0.829  1.00  0.00     0.001 A 
HETATM   16  C   UNL     1      -8.784   0.112   1.395  1.00  0.00     0.000 A 
HETATM   17  C   UNL     1      -8.106   1.262   0.995  1.00  0.00     0.001 A 
HETATM   18  C   UNL     1      -7.059   1.188   0.069  1.00  0.00     0.007 A 
ENDBRANCH  10  13
ENDBRANCH   2   7
BRANCH   4  19
HETATM   19  S   UNL     1      -1.409  -3.206  -0.034  1.00  0.00     0.181 S 
HETATM   20  O   UNL     1      -0.530  -3.987  -0.884  1.00  0.00    -0.222 OA
HETATM   21  O   UNL     1      -2.818  -3.304  -0.349  1.00  0.00    -0.222 OA
BRANCH  19  22
HETATM   22  C   UNL     1      -1.227  -3.737   1.668  1.00  0.00     0.184 C 
BRANCH  22  23
HETATM   23  C   UNL     1       0.205  -4.084   1.980  1.00  0.00    -0.044 A 
HETATM   24  C   UNL     1       1.035  -3.176   2.650  1.00  0.00     0.008 A 
HETATM   25  C   UNL     1       2.383  -3.476   2.860  1.00  0.00     0.001 A 
HETATM   26  C   UNL     1       2.909  -4.689   2.421  1.00  0.00     0.000 A 
HETATM   27  C   UNL     1       2.087  -5.612   1.780  1.00  0.00     0.001 A 
HETATM   28  C   UNL     1       0.742  -5.314   1.564  1.00  0.00     0.008 A 
ENDBRANCH  22  23
ENDBRANCH  19  22
ENDBRANCH   4  19
BRANCH   3  29
HETATM   29  N   UNL     1       1.408   2.241  -0.526  1.00  0.00    -0.379 N 
BRANCH  29  30
HETATM   30  C   UNL     1       2.713   2.641   0.091  1.00  0.00     0.153 C 
BRANCH  30  31
HETATM   31  C   UNL     1       3.968   1.822  -0.175  1.00  0.00     0.291 C 
BRANCH  31  32
HETATM   32  N   UNL     1       5.252   2.546   0.013  1.00  0.00     0.081 N 
HETATM   33  C   UNL     1       5.484   2.951   1.395  1.00  0.00     0.309 C 
HETATM   34  C   UNL     1       6.371   1.737  -0.475  1.00  0.00     0.309 C 
ENDBRANCH  31  32
ENDBRANCH  30  31
ENDBRANCH  29  30
BRANCH  29  35
HETATM   35  C   UNL     1       0.432   3.392  -0.503  1.00  0.00     0.118 C 
HETATM   36  C   UNL     1       0.984   4.792  -0.759  1.00  0.00     0.026 C 
ENDBRANCH  29  35
ENDBRANCH   3  29
BRANCH   5  37
HETATM   37  C   UNL     1       2.653  -0.723  -1.257  1.00  0.00     0.235 C 
HETATM   38  O   UNL     1       2.897  -0.187  -2.336  1.00  0.00    -0.274 OA
HETATM   39  N   UNL     1       3.426  -1.859  -0.799  1.00  0.00    -0.250 NA
BRANCH  39  40
HETATM   40  C   UNL     1       3.508  -2.965  -1.774  1.00  0.00     0.094 C 
HETATM   41  C   UNL     1       2.219  -3.698  -2.081  1.00  0.00     0.021 C 
ENDBRANCH  39  40
BRANCH  39  42
HETATM   42  C   UNL     1       4.763  -1.430  -0.365  1.00  0.00     0.094 C 
HETATM   43  C   UNL     1       5.806  -2.499  -0.049  1.00  0.00     0.021 C 
ENDBRANCH  39  42
ENDBRANCH   5  37
TORSDOF 13
