REMARK  10 active torsions:
REMARK  status: ('A' for Active; 'I' for Inactive)
REMARK    1  A    between atoms: C_5  and  N_11 
REMARK    2  A    between atoms: C_8  and  O_22 
REMARK    3  A    between atoms: N_11  and  C_12 
REMARK    4  A    between atoms: C_12  and  C_13 
REMARK    5  A    between atoms: C_13  and  C_14 
REMARK    6  A    between atoms: C_13  and  O_15 
REMARK    7  A    between atoms: O_22  and  C_23 
REMARK    8  A    between atoms: C_23  and  C_24 
REMARK    9  A    between atoms: C_24  and  O_25 
REMARK   10  A    between atoms: O_25  and  C_26 
ROOT
HETATM    1  C   UNL     1       0.051   0.454   0.094  1.00  0.00    -0.047 A 
HETATM    2  C   UNL     1       0.100  -0.947   0.020  1.00  0.00    -0.052 A 
HETATM    3  C   UNL     1      -1.254   1.198   0.243  1.00  0.00     0.074 C 
HETATM    4  C   UNL     1      -1.160  -1.772  -0.019  1.00  0.00     0.041 C 
HETATM    5  C   UNL     1      -2.482   0.355  -0.155  1.00  0.00     0.225 C 
HETATM    6  C   UNL     1      -2.384  -1.024   0.505  1.00  0.00     0.040 C 
HETATM    7  C   UNL     1       1.250   1.177   0.097  1.00  0.00     0.044 A 
HETATM    8  C   UNL     1       2.487   0.531   0.013  1.00  0.00     0.070 A 
HETATM    9  C   UNL     1       1.344  -1.588  -0.078  1.00  0.00     0.010 A 
HETATM   10  C   UNL     1       2.534  -0.855  -0.075  1.00  0.00     0.037 A 
ENDROOT
BRANCH   5  11
HETATM   11  N   UNL     1      -3.729   1.033   0.244  1.00  0.00     0.091 N 
HETATM   12  H   UNL     1      -3.615   2.043   0.214  1.00  0.00     0.316 HD
BRANCH  11  13
HETATM   13  C   UNL     1      -4.865   0.606  -0.590  1.00  0.00     0.306 C 
BRANCH  13  14
HETATM   14  C   UNL     1      -6.147   1.478  -0.481  1.00  0.00     0.179 C 
BRANCH  14  15
HETATM   15  C   UNL     1      -6.157   2.814  -1.214  1.00  0.00    -0.026 A 
HETATM   16  C   UNL     1      -7.391   3.460  -1.431  1.00  0.00     0.010 A 
HETATM   17  C   UNL     1      -7.462   4.712  -2.049  1.00  0.00     0.002 A 
HETATM   18  C   UNL     1      -6.295   5.362  -2.438  1.00  0.00     0.024 A 
HETATM   19  C   UNL     1      -5.068   4.744  -2.228  1.00  0.00     0.034 A 
HETATM   20  C   UNL     1      -4.996   3.478  -1.639  1.00  0.00     0.033 A 
HETATM   21 CL   UNL     1      -3.616   5.552  -2.681  1.00  0.00    -0.084 Cl
ENDBRANCH  14  15
BRANCH  14  22
HETATM   22  O   UNL     1      -7.232   0.679  -0.983  1.00  0.00    -0.389 OA
HETATM   23  H   UNL     1      -7.160   0.680  -1.953  1.00  0.00     0.210 HD
ENDBRANCH  14  22
ENDBRANCH  13  14
ENDBRANCH  11  13
ENDBRANCH   5  11
BRANCH   8  24
HETATM   24  O   UNL     1       3.552   1.378   0.026  1.00  0.00    -0.342 OA
BRANCH  24  25
HETATM   25  C   UNL     1       4.856   0.845   0.014  1.00  0.00     0.286 C 
BRANCH  25  26
HETATM   26  C   UNL     1       6.027   1.833   0.060  1.00  0.00     0.283 C 
HETATM   27  O   UNL     1       7.181   1.402   0.037  1.00  0.00    -0.263 OA
BRANCH  26  28
HETATM   28  O   UNL     1       5.822   3.169   0.125  1.00  0.00    -0.320 OA
BRANCH  28  29
HETATM   29  C   UNL     1       4.528   3.796   0.160  1.00  0.00     0.174 C 
HETATM   30  C   UNL     1       4.719   5.299   0.233  1.00  0.00     0.034 C 
ENDBRANCH  28  29
ENDBRANCH  26  28
ENDBRANCH  25  26
ENDBRANCH  24  25
ENDBRANCH   8  24
TORSDOF 10
