REMARK  11 active torsions:
REMARK  status: ('A' for Active; 'I' for Inactive)
REMARK    1  A    between atoms: N_7  and  C_12 
REMARK    2  A    between atoms: C_8  and  C_16 
REMARK    3  A    between atoms: C_12  and  C_13 
REMARK    4  A    between atoms: C_13  and  O_15 
REMARK       I    between atoms: C_16  and  N_17 
REMARK    5  A    between atoms: N_17  and  C_18 
REMARK    6  A    between atoms: C_21  and  C_29 
REMARK    7  A    between atoms: C_22  and  C_23 
REMARK    8  A    between atoms: C_24  and  O_40 
REMARK    9  A    between atoms: C_28  and  O_37 
REMARK   10  A    between atoms: C_29  and  C_30 
REMARK   11  A    between atoms: C_30  and  C_31 
ROOT
HETATM    1  C   UNL     1      -6.193   1.028   0.451  1.00  0.00     0.174 C 
HETATM    2  S   UNL     1      -6.595   2.627   0.086  1.00  0.00    -0.054 SA
HETATM    3  N   UNL     1      -7.194   0.234   0.714  1.00  0.00    -0.223 NA
HETATM    4  C   UNL     1      -8.281   2.168  -0.096  1.00  0.00     0.016 C 
HETATM    5  C   UNL     1      -8.413   0.932   0.567  1.00  0.00     0.086 C 
ENDROOT
BRANCH   1   6
HETATM    6  N   UNL     1      -4.840   0.857   0.392  1.00  0.00    -0.300 N 
HETATM    7  C   UNL     1      -4.201  -0.339   0.226  1.00  0.00     0.274 C 
HETATM    8  O   UNL     1      -4.776  -1.422   0.136  1.00  0.00    -0.266 OA
HETATM    9  H   UNL     1      -4.323   1.712   0.282  1.00  0.00     0.171 HD
BRANCH   7  10
HETATM   10  C   UNL     1      -2.735  -0.214   0.118  1.00  0.00     0.105 A 
HETATM   11  N   UNL     1      -1.834  -1.287   0.086  1.00  0.00    -0.331 N 
HETATM   12  C   UNL     1      -0.510  -0.838   0.041  1.00  0.00     0.051 A 
HETATM   13  C   UNL     1       0.751  -1.498   0.023  1.00  0.00    -0.034 A 
HETATM   14  C   UNL     1      -0.579   0.560   0.025  1.00  0.00    -0.006 A 
HETATM   15  C   UNL     1       1.909  -0.682   0.002  1.00  0.00     0.015 A 
HETATM   16  C   UNL     1       0.976  -2.986   0.031  1.00  0.00     0.050 C 
HETATM   17  C   UNL     1       1.854   0.709  -0.005  1.00  0.00    -0.061 A 
HETATM   18  C   UNL     1       0.605   1.331  -0.001  1.00  0.00     0.020 A 
HETATM   19  C   UNL     1       3.113   1.527  -0.005  1.00  0.00     0.048 C 
HETATM   20  C   UNL     1      -1.949   0.928   0.052  1.00  0.00     0.049 A 
BRANCH  11  21
HETATM   21  C   UNL     1      -2.271  -2.683   0.104  1.00  0.00     0.239 C 
BRANCH  21  22
HETATM   22  C   UNL     1      -2.857  -3.137   1.415  1.00  0.00     0.158 C 
HETATM   23  O   UNL     1      -3.530  -4.146   1.572  1.00  0.00    -0.649 OA
BRANCH  22  24
HETATM   24  O   UNL     1      -2.515  -2.396   2.488  1.00  0.00    -0.775 OA
HETATM   25  H   UNL     1      -2.997  -2.818   3.230  1.00  0.00     0.167 HD
ENDBRANCH  22  24
ENDBRANCH  21  22
ENDBRANCH  11  21
ENDBRANCH   7  10
ENDBRANCH   1   6
BRANCH   4  26
HETATM   26  C   UNL     1      -9.084   3.277  -0.752  1.00  0.00     0.049 C 
BRANCH  26  27
HETATM   27  C   UNL     1     -10.222   3.116  -1.775  1.00  0.00     0.010 C 
BRANCH  27  28
HETATM   28  C   UNL     1     -10.284   1.871  -2.661  1.00  0.00    -0.014 C 
HETATM   29  C   UNL     1     -11.163   0.810  -2.011  1.00  0.00     0.004 C 
HETATM   30  C   UNL     1     -11.066  -0.507  -2.756  1.00  0.00     0.000 C 
HETATM   31  C   UNL     1     -11.550  -0.339  -4.188  1.00  0.00     0.000 C 
HETATM   32  C   UNL     1     -10.929   0.873  -4.888  1.00  0.00     0.000 C 
HETATM   33  C   UNL     1     -10.933   2.145  -4.030  1.00  0.00     0.004 C 
ENDBRANCH  27  28
ENDBRANCH  26  27
ENDBRANCH   4  26
BRANCH   5  34
HETATM   34  C   UNL     1      -9.655   0.234   0.948  1.00  0.00     0.030 C 
HETATM   35  C   UNL     1      -9.824  -1.111   0.540  1.00  0.00     0.055 C 
HETATM   36  C   UNL     1     -11.078  -1.741   0.610  1.00  0.00     0.090 C 
HETATM   37  C   UNL     1     -12.171  -1.017   1.111  1.00  0.00     0.070 C 
HETATM   38  C   UNL     1     -11.989   0.256   1.659  1.00  0.00     0.064 C 
HETATM   39 CL   UNL     1     -13.777  -1.663   1.060  1.00  0.00    -0.081 Cl
HETATM   40  C   UNL     1     -10.725   0.863   1.609  1.00  0.00     0.082 C 
BRANCH  36  41
HETATM   41  O   UNL     1     -11.342  -3.002   0.138  1.00  0.00    -0.354 OA
HETATM   42  C   UNL     1     -10.237  -3.877  -0.045  1.00  0.00     0.210 C 
ENDBRANCH  36  41
BRANCH  40  43
HETATM   43  O   UNL     1     -10.489   1.995   2.342  1.00  0.00    -0.355 OA
HETATM   44  C   UNL     1     -11.144   3.150   1.839  1.00  0.00     0.210 C 
ENDBRANCH  40  43
ENDBRANCH   5  34
TORSDOF 11
