REMARK  5 active torsions:
REMARK  status: ('A' for Active; 'I' for Inactive)
REMARK    1  A    between atoms: C_8  and  C_9 
REMARK    2  A    between atoms: C_9  and  C_10 
REMARK    3  A    between atoms: C_9  and  N_16 
REMARK       I    between atoms: N_16  and  C_17 
REMARK    4  A    between atoms: C_17  and  C_19 
REMARK    5  A    between atoms: C_23  and  C_27 
ROOT
HETATM    1  N   UNL     1      -2.789  -2.309  -1.020  1.00  0.00    -0.348 N 
HETATM    2  C   UNL     1      -3.523  -1.778  -2.057  1.00  0.00     0.255 C 
HETATM    3  O   UNL     1      -3.060  -1.256  -3.064  1.00  0.00    -0.268 OA
HETATM    4  H   UNL     1      -3.266  -2.815  -0.287  1.00  0.00     0.163 HD
ENDROOT
BRANCH   1   5
HETATM    5  C   UNL     1      -1.327  -2.357  -1.017  1.00  0.00     0.124 C 
BRANCH   5   6
HETATM    6  C   UNL     1      -0.693  -0.936  -1.057  1.00  0.00     0.045 C 
HETATM    7  C   UNL     1       0.848  -0.976  -0.905  1.00  0.00     0.279 C 
HETATM    8  N   UNL     1       1.341   0.015   0.083  1.00  0.00     0.088 N 
HETATM    9  C   UNL     1       0.841   1.359  -0.283  1.00  0.00     0.272 C 
HETATM   10  C   UNL     1       0.811  -0.348   1.413  1.00  0.00     0.272 C 
HETATM   11  C   UNL     1      -0.694   1.423  -0.263  1.00  0.00     0.035 C 
HETATM   12  C   UNL     1      -1.254   0.022   0.036  1.00  0.00    -0.003 C 
HETATM   13  C   UNL     1      -0.724  -0.385   1.421  1.00  0.00     0.035 C 
ENDBRANCH   5   6
BRANCH   5  14
HETATM   14  C   UNL     1      -0.849  -3.371  -2.050  1.00  0.00    -0.035 A 
HETATM   15  C   UNL     1      -0.443  -3.004  -3.341  1.00  0.00     0.009 A 
HETATM   16  C   UNL     1      -0.072  -3.971  -4.279  1.00  0.00     0.001 A 
HETATM   17  C   UNL     1      -0.113  -5.322  -3.945  1.00  0.00     0.000 A 
HETATM   18  C   UNL     1      -0.523  -5.708  -2.672  1.00  0.00     0.001 A 
HETATM   19  C   UNL     1      -0.888  -4.741  -1.733  1.00  0.00     0.009 A 
ENDBRANCH   5  14
ENDBRANCH   1   5
BRANCH   2  20
HETATM   20  C   UNL     1      -4.989  -1.823  -1.897  1.00  0.00     0.076 A 
HETATM   21  C   UNL     1      -5.662  -3.051  -1.863  1.00  0.00     0.051 A 
HETATM   22  C   UNL     1      -7.054  -3.074  -1.784  1.00  0.00     0.026 A 
HETATM   23 CL   UNL     1      -4.850  -4.575  -1.913  1.00  0.00    -0.083 Cl
HETATM   24  C   UNL     1      -7.774  -1.879  -1.770  1.00  0.00     0.020 A 
HETATM   25  C   UNL     1      -7.119  -0.633  -1.818  1.00  0.00     0.070 A 
HETATM   26  C   UNL     1      -5.714  -0.613  -1.850  1.00  0.00     0.066 A 
HETATM   27 CL   UNL     1      -4.872   0.903  -1.735  1.00  0.00    -0.082 Cl
BRANCH  25  28
HETATM   28  C   UNL     1      -7.958   0.623  -1.783  1.00  0.00     0.419 C 
HETATM   29  F   UNL     1      -9.224   0.409  -2.249  1.00  0.00    -0.166 F 
HETATM   30  F   UNL     1      -8.112   1.098  -0.518  1.00  0.00    -0.166 F 
HETATM   31  F   UNL     1      -7.480   1.652  -2.530  1.00  0.00    -0.166 F 
ENDBRANCH  25  28
ENDBRANCH   2  20
TORSDOF 5
