REMARK  6 active torsions:
REMARK  status: ('A' for Active; 'I' for Inactive)
REMARK    1  A    between atoms: C_4  and  N_13 
REMARK    2  A    between atoms: C_5  and  N_16 
REMARK    3  A    between atoms: N_13  and  C_14 
REMARK    4  A    between atoms: C_14  and  C_15 
REMARK       I    between atoms: N_16  and  C_17 
REMARK    5  A    between atoms: C_17  and  C_18 
REMARK    6  A    between atoms: C_22  and  O_25 
ROOT
HETATM    1  C   UNL     1       0.077  -0.595  -0.093  1.00  0.00     0.071 A 
HETATM    2  C   UNL     1      -0.138   0.768   0.223  1.00  0.00     0.015 A 
HETATM    3  N   UNL     1       1.297  -1.144  -0.159  1.00  0.00    -0.229 NA
HETATM    4  C   UNL     1       1.001   1.545   0.599  1.00  0.00     0.046 C 
HETATM    5  C   UNL     1       2.361  -0.413   0.218  1.00  0.00     0.153 C 
HETATM    6  C   UNL     1       2.216   0.848   0.782  1.00  0.00     0.112 C 
HETATM    7  C   UNL     1      -1.010  -1.419  -0.352  1.00  0.00     0.032 A 
HETATM    8  C   UNL     1      -2.319  -0.939  -0.341  1.00  0.00     0.002 A 
HETATM    9  C   UNL     1      -1.473   1.249   0.188  1.00  0.00     0.015 A 
HETATM   10  C   UNL     1      -2.549   0.404  -0.090  1.00  0.00     0.001 A 
HETATM   11  C   UNL     1       3.161   1.264   1.777  1.00  0.00     0.105 C 
HETATM   12  N   UNL     1       3.910   1.575   2.610  1.00  0.00    -0.191 NA
ENDROOT
BRANCH   4  13
HETATM   13  N   UNL     1       0.851   2.936   0.908  1.00  0.00    -0.287 NA
HETATM   14  H   UNL     1       0.009   3.319   0.493  1.00  0.00     0.128 HD
BRANCH  13  15
HETATM   15  C   UNL     1       2.008   3.786   0.580  1.00  0.00     0.131 C 
BRANCH  15  16
HETATM   16  C   UNL     1       1.704   5.261   0.445  1.00  0.00    -0.045 A 
HETATM   17  C   UNL     1       0.660   5.754  -0.350  1.00  0.00     0.008 A 
HETATM   18  C   UNL     1       0.526   7.129  -0.570  1.00  0.00     0.001 A 
HETATM   19  C   UNL     1       1.441   8.024  -0.018  1.00  0.00     0.000 A 
HETATM   20  C   UNL     1       2.488   7.551   0.765  1.00  0.00     0.001 A 
HETATM   21  C   UNL     1       2.617   6.181   0.996  1.00  0.00     0.008 A 
ENDBRANCH  15  16
ENDBRANCH  13  15
ENDBRANCH   4  13
BRANCH   5  22
HETATM   22  N   UNL     1       3.580  -1.068  -0.014  1.00  0.00    -0.306 N 
HETATM   23  C   UNL     1       4.844  -0.592  -0.287  1.00  0.00     0.257 C 
HETATM   24  O   UNL     1       5.803  -1.358  -0.340  1.00  0.00    -0.267 OA
HETATM   25  H   UNL     1       3.486  -2.067  -0.154  1.00  0.00     0.170 HD
BRANCH  23  26
HETATM   26  C   UNL     1       5.067   0.833  -0.621  1.00  0.00     0.032 A 
HETATM   27  C   UNL     1       4.392   1.439  -1.686  1.00  0.00     0.020 A 
HETATM   28  C   UNL     1       4.554   2.811  -1.924  1.00  0.00     0.038 A 
HETATM   29  C   UNL     1       5.368   3.577  -1.087  1.00  0.00     0.068 A 
HETATM   30  C   UNL     1       6.096   2.946  -0.073  1.00  0.00     0.038 A 
HETATM   31  C   UNL     1       5.968   1.573   0.147  1.00  0.00     0.020 A 
BRANCH  29  32
HETATM   32  O   UNL     1       5.526   4.934  -1.140  1.00  0.00    -0.356 OA
HETATM   33  C   UNL     1       4.660   5.657  -2.007  1.00  0.00     0.210 C 
ENDBRANCH  29  32
ENDBRANCH  23  26
ENDBRANCH   5  22
TORSDOF 6
