REMARK  9 active torsions:
REMARK  status: ('A' for Active; 'I' for Inactive)
REMARK    1  A    between atoms: C_7  and  C_23 
REMARK    2  A    between atoms: N_9  and  C_11 
REMARK    3  A    between atoms: C_11  and  C_12 
REMARK    4  A    between atoms: C_14  and  O_20 
REMARK    5  A    between atoms: C_17  and  O_18 
REMARK    6  A    between atoms: C_28  and  C_31 
REMARK       I    between atoms: C_31  and  N_32 
REMARK    7  A    between atoms: N_32  and  C_34 
REMARK    8  A    between atoms: N_32  and  C_35 
REMARK    9  A    between atoms: C_34  and  C_37 
ROOT
HETATM    1  C   UNL     1       0.677  -0.287  -0.360  1.00  0.00    -0.007 A 
HETATM    2  C   UNL     1       0.004   0.946  -0.233  1.00  0.00     0.045 A 
HETATM    3  C   UNL     1       2.073  -0.321  -0.365  1.00  0.00     0.034 A 
HETATM    4  C   UNL     1       0.716   2.140  -0.196  1.00  0.00     0.032 A 
HETATM    5  C   UNL     1       2.783   0.874  -0.271  1.00  0.00     0.034 A 
HETATM    6  C   UNL     1       2.114   2.098  -0.203  1.00  0.00     0.026 A 
HETATM    7  C   UNL     1      -0.290  -1.431  -0.137  1.00  0.00     0.097 C 
HETATM    8  C   UNL     1      -1.422  -0.582   0.563  1.00  0.00     0.242 C 
HETATM    9  N   UNL     1      -1.376   0.766   0.141  1.00  0.00    -0.312 N 
HETATM   10 CL   UNL     1       4.500   0.835  -0.131  1.00  0.00    -0.084 Cl
HETATM   11  O   UNL     1      -2.063  -1.068   1.471  1.00  0.00    -0.271 OA
HETATM   12  C   UNL     1       0.204  -2.418   0.965  1.00  0.00     0.036 C 
ENDROOT
BRANCH   7  13
HETATM   13  C   UNL     1      -0.752  -2.283  -1.364  1.00  0.00     0.002 A 
HETATM   14  C   UNL     1      -2.101  -2.287  -1.841  1.00  0.00     0.041 A 
HETATM   15  C   UNL     1      -2.512  -3.158  -2.885  1.00  0.00     0.018 A 
HETATM   16  C   UNL     1      -1.627  -4.048  -3.482  1.00  0.00     0.003 A 
HETATM   17  C   UNL     1      -0.313  -4.066  -3.050  1.00  0.00     0.024 A 
HETATM   18  C   UNL     1       0.120  -3.211  -2.017  1.00  0.00     0.043 A 
HETATM   19 CL   UNL     1       1.805  -3.405  -1.670  1.00  0.00    -0.084 Cl
BRANCH  14  20
HETATM   20  C   UNL     1      -2.954  -1.089  -1.798  1.00  0.00     0.254 C 
HETATM   21  N   UNL     1      -4.102  -0.926  -1.009  1.00  0.00    -0.344 N 
HETATM   22  O   UNL     1      -2.601  -0.252  -2.637  1.00  0.00    -0.267 OA
BRANCH  21  23
HETATM   23  C   UNL     1      -4.853   0.265  -1.371  1.00  0.00     0.166 C 
BRANCH  23  24
HETATM   24  C   UNL     1      -5.879   0.154  -2.463  1.00  0.00    -0.023 A 
HETATM   25  C   UNL     1      -6.603  -1.002  -2.702  1.00  0.00     0.124 A 
HETATM   26  N   UNL     1      -7.675  -1.071  -3.523  1.00  0.00    -0.273 NA
HETATM   27  C   UNL     1      -8.040   0.073  -4.141  1.00  0.00     0.116 A 
HETATM   28  C   UNL     1      -7.368   1.273  -4.005  1.00  0.00     0.020 A 
HETATM   29  C   UNL     1      -6.266   1.308  -3.160  1.00  0.00     0.012 A 
ENDBRANCH  23  24
ENDBRANCH  21  23
BRANCH  21  30
HETATM   30  C   UNL     1      -4.670  -1.756   0.101  1.00  0.00     0.122 C 
HETATM   31  C   UNL     1      -4.556  -1.258   1.552  1.00  0.00     0.026 C 
ENDBRANCH  21  30
ENDBRANCH  14  20
ENDBRANCH   7  13
BRANCH   9  32
HETATM   32  C   UNL     1      -2.150   2.036   0.545  1.00  0.00     0.173 C 
BRANCH  32  33
HETATM   33  C   UNL     1      -3.678   2.303   0.677  1.00  0.00    -0.006 C 
HETATM   34  C   UNL     1      -4.453   1.869   1.756  1.00  0.00     0.014 C 
HETATM   35  C   UNL     1      -5.874   1.962   1.748  1.00  0.00     0.037 C 
HETATM   36  C   UNL     1      -6.572   2.599   0.720  1.00  0.00     0.070 C 
HETATM   37  C   UNL     1      -5.812   3.308  -0.194  1.00  0.00     0.074 C 
HETATM   38  C   UNL     1      -4.391   3.190  -0.179  1.00  0.00     0.078 C 
BRANCH  36  39
HETATM   39  O   UNL     1      -7.928   2.457   0.753  1.00  0.00    -0.356 OA
HETATM   40  C   UNL     1      -8.727   2.828  -0.371  1.00  0.00     0.210 C 
ENDBRANCH  36  39
BRANCH  38  41
HETATM   41  O   UNL     1      -3.737   4.010  -1.067  1.00  0.00    -0.355 OA
HETATM   42  C   UNL     1      -3.049   5.049  -0.359  1.00  0.00     0.210 C 
ENDBRANCH  38  41
ENDBRANCH  32  33
ENDBRANCH   9  32
TORSDOF 9
