REMARK  6 active torsions:
REMARK  status: ('A' for Active; 'I' for Inactive)
REMARK    1  A    between atoms: C_2  and  C_7 
REMARK    2  A    between atoms: C_6  and  C_13 
REMARK       I    between atoms: N_12  and  C_15 
REMARK    3  A    between atoms: C_13  and  N_14 
REMARK    4  A    between atoms: C_15  and  C_17 
REMARK    5  A    between atoms: C_20  and  C_22 
REMARK    6  A    between atoms: C_23  and  C_24 
ROOT
HETATM    1  C   UNL     1      -1.719  -2.448  -0.042  1.00  0.00     0.021 C 
HETATM    2  C   UNL     1      -2.208  -2.570   1.418  1.00  0.00     0.029 C 
HETATM    3  C   UNL     1      -1.285  -3.811  -0.632  1.00  0.00     0.029 C 
HETATM    4  C   UNL     1      -1.253  -3.421   2.238  1.00  0.00     0.127 C 
HETATM    5  C   UNL     1      -0.663  -4.820   0.346  1.00  0.00     0.127 C 
HETATM    6  N   UNL     1      -1.265  -4.763   1.678  1.00  0.00    -0.346 N 
HETATM    7  C   UNL     1      -1.880  -5.905   2.222  1.00  0.00     0.277 C 
HETATM    8  O   UNL     1      -1.883  -6.954   1.569  1.00  0.00    -0.265 OA
ENDROOT
BRANCH   7   9
HETATM    9  C   UNL     1      -2.483  -5.904   3.558  1.00  0.00     0.144 A 
HETATM   10  C   UNL     1      -2.900  -6.990   4.320  1.00  0.00     0.046 A 
HETATM   11  C   UNL     1      -3.370  -6.489   5.559  1.00  0.00     0.050 A 
HETATM   12  C   UNL     1      -3.243  -5.126   5.477  1.00  0.00     0.130 A 
HETATM   13  O   UNL     1      -2.740  -4.760   4.271  1.00  0.00    -0.296 OA
BRANCH  12  14
HETATM   14  C   UNL     1      -3.518  -4.102   6.416  1.00  0.00    -0.036 C 
HETATM   15  C   UNL     1      -3.744  -3.256   7.242  1.00  0.00    -0.056 C 
BRANCH  15  16
HETATM   16  C   UNL     1      -4.013  -2.262   8.238  1.00  0.00     0.056 A 
HETATM   17  C   UNL     1      -3.462  -0.983   8.140  1.00  0.00     0.135 A 
HETATM   18  C   UNL     1      -3.728  -0.012   9.104  1.00  0.00     0.044 A 
HETATM   19  F   UNL     1      -2.661  -0.663   7.112  1.00  0.00    -0.205 F 
HETATM   20  C   UNL     1      -4.555  -0.317  10.185  1.00  0.00     0.003 A 
HETATM   21  C   UNL     1      -5.108  -1.594  10.297  1.00  0.00     0.002 A 
HETATM   22  C   UNL     1      -4.838  -2.565   9.327  1.00  0.00     0.024 A 
ENDBRANCH  15  16
ENDBRANCH  12  14
ENDBRANCH   7   9
BRANCH   1  23
HETATM   23  C   UNL     1      -0.785  -1.244  -0.158  1.00  0.00    -0.053 A 
HETATM   24  C   UNL     1      -1.404   0.024  -0.144  1.00  0.00     0.007 A 
HETATM   25  C   UNL     1      -0.663   1.199  -0.129  1.00  0.00     0.001 A 
HETATM   26  C   UNL     1       0.723   1.130  -0.140  1.00  0.00     0.009 A 
HETATM   27  C   UNL     1       1.386  -0.110  -0.181  1.00  0.00    -0.030 A 
HETATM   28  C   UNL     1       0.617  -1.297  -0.196  1.00  0.00     0.016 A 
BRANCH  27  29
HETATM   29  C   UNL     1       2.897  -0.062  -0.235  1.00  0.00     0.305 C 
BRANCH  29  30
HETATM   30  N   UNL     1       3.567  -1.351  -0.108  1.00  0.00     0.082 N 
HETATM   31  H   UNL     1       3.425  -1.694   0.840  1.00  0.00     0.313 HD
HETATM   32  H   UNL     1       4.571  -1.198  -0.200  1.00  0.00     0.313 HD
ENDBRANCH  29  30
ENDBRANCH  27  29
ENDBRANCH   1  23
TORSDOF 6
