REMARK  13 active torsions:
REMARK  status: ('A' for Active; 'I' for Inactive)
REMARK    1  A    between atoms: C_5  and  C_22 
REMARK    2  A    between atoms: C_8  and  C_10 
REMARK    3  A    between atoms: N_9  and  C_33 
REMARK       I    between atoms: C_10  and  N_12 
REMARK    4  A    between atoms: N_12  and  C_13 
REMARK    5  A    between atoms: N_14  and  C_19 
REMARK    6  A    between atoms: C_22  and  O_23 
REMARK    7  A    between atoms: O_23  and  C_25 
REMARK    8  A    between atoms: C_25  and  O_26 
REMARK    9  A    between atoms: O_26  and  C_28 
REMARK   10  A    between atoms: C_28  and  O_29 
REMARK   11  A    between atoms: O_29  and  C_31 
REMARK   12  A    between atoms: C_33  and  C_34 
REMARK   13  A    between atoms: C_37  and  C_39 
ROOT
HETATM    1  C   UNL     1       1.085   7.416  -0.453  1.00  0.00    -0.006 A 
HETATM    2  C   UNL     1       0.594   8.304   0.506  1.00  0.00     0.045 A 
HETATM    3  C   UNL     1       0.903   6.029  -0.301  1.00  0.00     0.031 C 
HETATM    4  C   UNL     1      -0.136   7.771   1.583  1.00  0.00     0.031 C 
HETATM    5  C   UNL     1       0.528   5.530   0.936  1.00  0.00     0.040 C 
HETATM    6  C   UNL     1      -0.068   6.392   1.845  1.00  0.00     0.020 C 
HETATM    7  C   UNL     1       1.739   8.172  -1.434  1.00  0.00     0.049 A 
HETATM    8  C   UNL     1       1.736   9.509  -1.068  1.00  0.00     0.104 A 
HETATM    9  N   UNL     1       0.965   9.595   0.111  1.00  0.00    -0.336 N 
ENDROOT
BRANCH   8  10
HETATM   10  C   UNL     1       2.477  10.498  -1.853  1.00  0.00     0.268 C 
HETATM   11  O   UNL     1       3.293  10.156  -2.707  1.00  0.00    -0.266 OA
HETATM   12  N   UNL     1       2.197  11.829  -1.657  1.00  0.00    -0.351 N 
HETATM   13  H   UNL     1       1.340  12.056  -1.196  1.00  0.00     0.163 HD
BRANCH  12  14
HETATM   14  C   UNL     1       2.633  12.844  -2.619  1.00  0.00     0.088 C 
HETATM   15  C   UNL     1       2.711  14.214  -1.941  1.00  0.00     0.055 C 
HETATM   16  C   UNL     1       1.318  14.771  -1.630  1.00  0.00     0.275 C 
HETATM   17  N   UNL     1       0.428  14.826  -2.804  1.00  0.00     0.092 N 
HETATM   18  C   UNL     1       0.315  13.482  -3.398  1.00  0.00     0.275 C 
HETATM   19  C   UNL     1       1.665  12.883  -3.809  1.00  0.00     0.055 C 
BRANCH  17  20
HETATM   20  C   UNL     1       0.784  15.889  -3.778  1.00  0.00     0.215 C 
HETATM   21  C   UNL     1      -0.182  15.930  -4.974  1.00  0.00     0.042 C 
HETATM   22  C   UNL     1       0.768  17.284  -3.131  1.00  0.00     0.042 C 
ENDBRANCH  17  20
ENDBRANCH  12  14
ENDBRANCH   8  10
BRANCH   9  23
HETATM   23  C   UNL     1       0.722  10.886   0.799  1.00  0.00     0.191 C 
BRANCH  23  24
HETATM   24  C   UNL     1      -0.043  10.932   2.071  1.00  0.00     0.083 C 
HETATM   25  C   UNL     1       0.219  10.337   3.329  1.00  0.00     0.072 C 
HETATM   26  C   UNL     1      -0.978  10.455   4.013  1.00  0.00     0.120 C 
HETATM   27  O   UNL     1      -1.744  11.373   3.348  1.00  0.00    -0.212 OA
HETATM   28  N   UNL     1      -1.164  11.666   2.130  1.00  0.00    -0.131 NA
BRANCH  26  29
HETATM   29  C   UNL     1      -1.492   9.639   5.075  1.00  0.00     0.042 A 
HETATM   30  C   UNL     1      -1.258   8.284   5.242  1.00  0.00     0.024 A 
HETATM   31  C   UNL     1      -2.071   7.710   6.262  1.00  0.00     0.033 A 
HETATM   32  C   UNL     1      -2.837   8.670   6.870  1.00  0.00     0.075 A 
HETATM   33  S   UNL     1      -2.632  10.217   6.213  1.00  0.00    -0.075 SA
HETATM   34 CL   UNL     1      -3.940   8.422   8.160  1.00  0.00    -0.076 Cl
ENDBRANCH  26  29
ENDBRANCH  23  24
ENDBRANCH   9  23
BRANCH   5  35
HETATM   35  C   UNL     1       0.764   4.109   1.303  1.00  0.00     0.295 C 
HETATM   36  O   UNL     1      -0.097   3.464   1.884  1.00  0.00    -0.259 OA
BRANCH  35  37
HETATM   37  O   UNL     1       2.091   3.802   1.343  1.00  0.00    -0.286 OA
BRANCH  37  38
HETATM   38  C   UNL     1       2.787   3.382   0.149  1.00  0.00     0.277 C 
HETATM   39  C   UNL     1       3.529   4.570  -0.478  1.00  0.00     0.072 C 
BRANCH  38  40
HETATM   40  O   UNL     1       3.906   2.546   0.476  1.00  0.00    -0.266 OA
BRANCH  40  41
HETATM   41  C   UNL     1       3.781   1.242   0.731  1.00  0.00     0.408 C 
HETATM   42  O   UNL     1       2.751   0.595   0.812  1.00  0.00    -0.229 OA
BRANCH  41  43
HETATM   43  O   UNL     1       5.045   0.790   0.866  1.00  0.00    -0.298 OA
BRANCH  43  44
HETATM   44  C   UNL     1       5.250  -0.558   1.282  1.00  0.00     0.176 C 
HETATM   45  C   UNL     1       6.740  -0.819   1.136  1.00  0.00     0.034 C 
ENDBRANCH  43  44
ENDBRANCH  41  43
ENDBRANCH  40  41
ENDBRANCH  38  40
ENDBRANCH  37  38
ENDBRANCH  35  37
ENDBRANCH   5  35
TORSDOF 13
