REMARK  5 active torsions:
REMARK  status: ('A' for Active; 'I' for Inactive)
REMARK    1  A    between atoms: C_5  and  N_16 
REMARK    2  A    between atoms: C_6  and  N_7 
REMARK    3  A    between atoms: C_12  and  C_13 
REMARK    4  A    between atoms: C_13  and  O_14 
REMARK       I    between atoms: N_16  and  C_17 
REMARK       I    between atoms: C_17  and  N_18 
REMARK       I    between atoms: N_18  and  C_20 
REMARK    5  A    between atoms: C_20  and  C_21 
ROOT
HETATM    1  C   UNL     1      -1.672   0.731  -1.664  1.00  0.00     0.118 A 
HETATM    2  C   UNL     1      -1.096  -0.752  -0.867  1.00  0.00     0.044 A 
HETATM    3  C   UNL     1      -0.664   2.148  -1.579  1.00  0.00     0.074 A 
HETATM    4  C   UNL     1       0.704  -0.729   0.052  1.00  0.00     0.035 A 
HETATM    5  C   UNL     1       0.936   2.171  -0.747  1.00  0.00     0.066 A 
HETATM    6  C   UNL     1       1.696   0.766   0.021  1.00  0.00     0.057 A 
HETATM    7  F   UNL     1      -2.867   0.765  -2.258  1.00  0.00    -0.206 F 
ENDROOT
BRANCH   5   8
HETATM    8  N   UNL     1       1.255   3.448  -0.299  1.00  0.00    -0.306 N 
HETATM    9  C   UNL     1       0.381   4.042   0.558  1.00  0.00     0.327 C 
HETATM   10  N   UNL     1      -0.744   3.336   0.921  1.00  0.00    -0.275 N 
HETATM   11  O   UNL     1       0.612   5.146   1.046  1.00  0.00    -0.247 OA
HETATM   12  C   UNL     1      -1.177   2.004   0.881  1.00  0.00     0.261 C 
HETATM   13  H   UNL     1      -1.348   3.887   1.518  1.00  0.00     0.173 HD
HETATM   14  O   UNL     1      -2.230   1.787   1.496  1.00  0.00    -0.267 OA
HETATM   15  H   UNL     1       2.197   3.758  -0.133  1.00  0.00     0.171 HD
BRANCH  12  16
HETATM   16  C   UNL     1      -0.494   0.745   0.150  1.00  0.00     0.057 A 
HETATM   17  C   UNL     1       0.399   0.165  -1.583  1.00  0.00     0.052 A 
HETATM   18  C   UNL     1       0.592  -1.608  -1.893  1.00  0.00     0.070 A 
HETATM   19 CL   UNL     1       1.124   0.890  -3.137  1.00  0.00    -0.083 Cl
HETATM   20  C   UNL     1      -0.007  -2.736  -0.703  1.00  0.00     0.156 A 
HETATM   21  C   UNL     1      -0.790  -2.252   0.802  1.00  0.00     0.155 A 
HETATM   22  F   UNL     1       0.165  -4.045  -0.937  1.00  0.00    -0.203 F 
HETATM   23  C   UNL     1      -1.042  -0.585   1.266  1.00  0.00     0.064 A 
HETATM   24  F   UNL     1      -1.216  -3.213   1.636  1.00  0.00    -0.203 F 
ENDBRANCH  12  16
ENDBRANCH   5   8
BRANCH   6  25
HETATM   25  N   UNL     1       3.020   0.695   0.489  1.00  0.00    -0.379 N 
HETATM   26  C   UNL     1       3.976   1.799   0.299  1.00  0.00     0.124 C 
HETATM   27  C   UNL     1       4.621   1.730  -1.093  1.00  0.00     0.035 C 
HETATM   28  C   UNL     1       5.348   0.382  -1.300  1.00  0.00     0.086 C 
HETATM   29  C   UNL     1       4.346  -0.748  -1.029  1.00  0.00     0.035 C 
HETATM   30  C   UNL     1       3.713  -0.609   0.363  1.00  0.00     0.124 C 
BRANCH  28  31
HETATM   31  C   UNL     1       6.620   0.355  -0.453  1.00  0.00     0.143 C 
HETATM   32  O   UNL     1       7.263   1.361  -0.186  1.00  0.00    -0.650 OA
BRANCH  31  33
HETATM   33  O   UNL     1       7.044  -0.855  -0.041  1.00  0.00    -0.776 OA
HETATM   34  H   UNL     1       6.559  -1.638  -0.349  1.00  0.00     0.167 HD
ENDBRANCH  31  33
ENDBRANCH  28  31
ENDBRANCH   6  25
TORSDOF 5
