REMARK  7 active torsions:
REMARK  status: ('A' for Active; 'I' for Inactive)
REMARK    1  A    between atoms: C_3  and  S_11 
REMARK    2  A    between atoms: S_11  and  N_12 
REMARK    3  A    between atoms: N_12  and  C_15 
REMARK    4  A    between atoms: C_17  and  C_21 
REMARK       I    between atoms: C_21  and  N_23 
REMARK    5  A    between atoms: N_23  and  C_24 
REMARK    6  A    between atoms: C_24  and  C_26 
REMARK    7  A    between atoms: C_24  and  C_25 
ROOT
HETATM    1  C   UNL     1      -2.541  -2.284   3.493  1.00  0.00     0.086 A 
HETATM    2  C   UNL     1      -0.336  -2.065   4.547  1.00  0.00     0.061 A 
HETATM    3  C   UNL     1      -1.457  -1.490   3.924  1.00  0.00     0.064 A 
HETATM    4  C   UNL     1      -0.288  -3.431   4.755  1.00  0.00     0.117 A 
HETATM    5  C   UNL     1      -1.345  -4.240   4.375  1.00  0.00     0.044 A 
HETATM    6  C   UNL     1      -2.462  -3.668   3.763  1.00  0.00     0.036 A 
HETATM    7  F   UNL     1       0.796  -3.977   5.323  1.00  0.00    -0.206 F 
ENDROOT
BRANCH   1   8
HETATM    8  N   UNL     1      -3.638  -1.744   2.909  1.00  0.00    -0.159 NA
BRANCH   8   9
HETATM    9  S   UNL     1      -4.188  -2.279   1.497  1.00  0.00     0.286 S 
HETATM   10  O   UNL     1      -5.637  -2.449   1.394  1.00  0.00    -0.198 OA
HETATM   11  O   UNL     1      -3.436  -3.389   0.901  1.00  0.00    -0.198 OA
BRANCH   9  12
HETATM   12  C   UNL     1      -3.864  -0.921   0.334  1.00  0.00     0.111 A 
HETATM   13  C   UNL     1      -4.414   0.344   0.588  1.00  0.00     0.090 A 
HETATM   14  N   UNL     1      -5.243   0.619   1.626  1.00  0.00    -0.259 NA
HETATM   15  C   UNL     1      -4.043   1.375  -0.306  1.00  0.00    -0.006 A 
HETATM   16  C   UNL     1      -5.700   1.871   1.811  1.00  0.00     0.117 A 
HETATM   17  C   UNL     1      -5.383   2.924   0.985  1.00  0.00     0.020 A 
HETATM   18  C   UNL     1      -4.547   2.667  -0.092  1.00  0.00     0.015 A 
HETATM   19  C   UNL     1      -3.168   1.127  -1.382  1.00  0.00     0.014 A 
HETATM   20  C   UNL     1      -2.649  -0.144  -1.601  1.00  0.00     0.003 A 
HETATM   21  C   UNL     1      -2.997  -1.174  -0.742  1.00  0.00     0.028 A 
ENDBRANCH   9  12
ENDBRANCH   8   9
ENDBRANCH   1   8
BRANCH   3  22
HETATM   22  C   UNL     1      -1.324  -0.023   3.682  1.00  0.00     0.254 C 
HETATM   23  O   UNL     1      -1.314   0.757   4.625  1.00  0.00    -0.268 OA
HETATM   24  N   UNL     1      -0.938   0.284   2.385  1.00  0.00    -0.348 N 
HETATM   25  H   UNL     1      -0.976  -0.510   1.756  1.00  0.00     0.163 HD
BRANCH  24  26
HETATM   26  C   UNL     1       0.120   1.254   2.122  1.00  0.00     0.117 C 
BRANCH  26  27
HETATM   27  C   UNL     1      -0.214   2.719   2.481  1.00  0.00     0.025 C 
HETATM   28  C   UNL     1      -1.119   3.379   1.452  1.00  0.00     0.007 C 
ENDBRANCH  26  27
BRANCH  26  29
HETATM   29  C   UNL     1       1.433   0.761   2.731  1.00  0.00    -0.035 A 
HETATM   30  C   UNL     1       2.217  -0.172   2.032  1.00  0.00     0.009 A 
HETATM   31  C   UNL     1       3.373  -0.704   2.606  1.00  0.00     0.001 A 
HETATM   32  C   UNL     1       3.761  -0.317   3.887  1.00  0.00     0.000 A 
HETATM   33  C   UNL     1       2.992   0.602   4.596  1.00  0.00     0.001 A 
HETATM   34  C   UNL     1       1.836   1.134   4.024  1.00  0.00     0.009 A 
ENDBRANCH  26  29
ENDBRANCH  24  26
ENDBRANCH   3  22
TORSDOF 7
