REMARK  10 active torsions:
REMARK  status: ('A' for Active; 'I' for Inactive)
REMARK    1  A    between atoms: C_5  and  O_10 
REMARK    2  A    between atoms: C_8  and  C_11 
REMARK    3  A    between atoms: N_9  and  C_20 
REMARK    4  A    between atoms: O_10  and  C_25 
REMARK       I    between atoms: C_11  and  N_13 
REMARK    5  A    between atoms: N_13  and  C_14 
REMARK    6  A    between atoms: N_15  and  C_22 
REMARK    7  A    between atoms: C_20  and  C_21 
REMARK       I    between atoms: C_21  and  N_29 
REMARK    8  A    between atoms: C_25  and  C_26 
REMARK    9  A    between atoms: C_26  and  O_27 
REMARK   10  A    between atoms: N_29  and  C_31 
ROOT
HETATM    1  C   UNL     1      -0.551   0.774  -0.117  1.00  0.00    -0.001 C 
HETATM    2  C   UNL     1      -0.429  -0.570   0.205  1.00  0.00     0.063 C 
HETATM    3  C   UNL     1       0.621   1.490  -0.407  1.00  0.00     0.071 C 
HETATM    4  C   UNL     1       0.757  -1.268   0.045  1.00  0.00     0.150 C 
HETATM    5  C   UNL     1       1.799   0.750  -0.424  1.00  0.00     0.164 C 
HETATM    6  N   UNL     1       1.858  -0.589  -0.305  1.00  0.00    -0.235 NA
HETATM    7  C   UNL     1      -1.948   1.035  -0.092  1.00  0.00     0.049 C 
HETATM    8  C   UNL     1      -2.611  -0.159   0.210  1.00  0.00     0.104 C 
HETATM    9  N   UNL     1      -1.635  -0.936   0.783  1.00  0.00    -0.332 N 
ENDROOT
BRANCH   8  10
HETATM   10  C   UNL     1      -4.012  -0.421   0.014  1.00  0.00     0.268 C 
HETATM   11  O   UNL     1      -4.867   0.450   0.207  1.00  0.00    -0.266 OA
HETATM   12  N   UNL     1      -4.448  -1.642  -0.418  1.00  0.00    -0.351 N 
HETATM   13  H   UNL     1      -5.456  -1.641  -0.535  1.00  0.00     0.163 HD
BRANCH  12  14
HETATM   14  C   UNL     1      -3.748  -2.873  -0.815  1.00  0.00     0.087 C 
HETATM   15  C   UNL     1      -4.019  -3.220  -2.282  1.00  0.00     0.044 C 
HETATM   16  C   UNL     1      -3.568  -4.633  -2.695  1.00  0.00     0.119 C 
HETATM   17  N   UNL     1      -3.274  -5.550  -1.597  1.00  0.00    -0.409 N 
HETATM   18  C   UNL     1      -4.184  -5.386  -0.483  1.00  0.00     0.119 C 
HETATM   19  C   UNL     1      -4.141  -4.003   0.146  1.00  0.00     0.044 C 
BRANCH  17  20
HETATM   20  C   UNL     1      -1.860  -5.887  -1.381  1.00  0.00     0.070 C 
HETATM   21  C   UNL     1      -0.896  -4.704  -1.250  1.00  0.00     0.031 C 
HETATM   22  C   UNL     1      -1.621  -6.845  -0.204  1.00  0.00     0.031 C 
ENDBRANCH  17  20
ENDBRANCH  12  14
ENDBRANCH   8  10
BRANCH   9  23
HETATM   23  C   UNL     1      -1.644  -1.999   1.781  1.00  0.00     0.232 C 
BRANCH  23  24
HETATM   24  C   UNL     1      -2.618  -2.140   2.918  1.00  0.00     0.241 C 
HETATM   25  N   UNL     1      -3.920  -1.753   2.774  1.00  0.00    -0.310 N 
HETATM   26  H   UNL     1      -4.149  -0.832   2.421  1.00  0.00     0.170 HD
HETATM   27  O   UNL     1      -2.230  -2.770   3.911  1.00  0.00    -0.271 OA
BRANCH  25  28
HETATM   28  C   UNL     1      -4.979  -2.375   3.453  1.00  0.00     0.129 A 
HETATM   29  C   UNL     1      -4.917  -3.718   3.831  1.00  0.00     0.052 A 
HETATM   30  C   UNL     1      -6.009  -4.306   4.465  1.00  0.00     0.029 A 
HETATM   31  C   UNL     1      -7.130  -3.532   4.716  1.00  0.00     0.051 A 
HETATM   32  C   UNL     1      -7.122  -2.213   4.288  1.00  0.00     0.142 A 
HETATM   33 CL   UNL     1      -8.485  -4.200   5.527  1.00  0.00    -0.083 Cl
HETATM   34  N   UNL     1      -6.082  -1.626   3.635  1.00  0.00    -0.242 NA
ENDBRANCH  25  28
ENDBRANCH  23  24
ENDBRANCH   9  23
BRANCH   5  35
HETATM   35  O   UNL     1       2.985   1.453  -0.475  1.00  0.00    -0.332 OA
BRANCH  35  36
HETATM   36  C   UNL     1       4.163   0.643  -0.300  1.00  0.00     0.203 C 
BRANCH  36  37
HETATM   37  C   UNL     1       4.516   0.367   1.175  1.00  0.00     0.193 C 
BRANCH  37  38
HETATM   38  O   UNL     1       3.864  -0.793   1.700  1.00  0.00    -0.394 OA
HETATM   39  C   UNL     1       2.887  -0.487   2.686  1.00  0.00     0.201 C 
ENDBRANCH  37  38
ENDBRANCH  36  37
ENDBRANCH  35  36
ENDBRANCH   5  35
TORSDOF 10
