REMARK  7 active torsions:
REMARK  status: ('A' for Active; 'I' for Inactive)
REMARK    1  A    between atoms: C_2  and  C_7 
REMARK    2  A    between atoms: C_6  and  C_13 
REMARK       I    between atoms: N_12  and  C_16 
REMARK    3  A    between atoms: C_13  and  N_14 
REMARK    4  A    between atoms: C_16  and  C_17 
REMARK    5  A    between atoms: C_20  and  O_25 
REMARK    6  A    between atoms: O_25  and  C_26 
REMARK    7  A    between atoms: C_26  and  C_27 
ROOT
HETATM    1  C   UNL     1      -1.827  -2.340   0.031  1.00  0.00     0.025 C 
HETATM    2  C   UNL     1      -2.547  -2.575   1.381  1.00  0.00     0.029 C 
HETATM    3  C   UNL     1      -1.355  -3.682  -0.582  1.00  0.00     0.029 C 
HETATM    4  C   UNL     1      -1.770  -3.507   2.308  1.00  0.00     0.127 C 
HETATM    5  C   UNL     1      -0.682  -4.618   0.426  1.00  0.00     0.127 C 
HETATM    6  N   UNL     1      -1.514  -4.762   1.615  1.00  0.00    -0.347 N 
HETATM    7  C   UNL     1      -2.162  -5.927   2.042  1.00  0.00     0.261 C 
HETATM    8  O   UNL     1      -2.766  -5.961   3.114  1.00  0.00    -0.267 OA
ENDROOT
BRANCH   7   9
HETATM    9  C   UNL     1      -2.084  -7.111   1.198  1.00  0.00     0.082 C 
HETATM   10  S   UNL     1      -2.895  -7.115  -0.308  1.00  0.00    -0.058 SA
HETATM   11  C   UNL     1      -2.365  -8.700  -0.695  1.00  0.00     0.128 C 
HETATM   12  C   UNL     1      -1.720  -9.244   0.398  1.00  0.00     0.059 C 
HETATM   13  C   UNL     1      -1.547  -8.353   1.507  1.00  0.00    -0.019 C 
HETATM   14 BR   UNL     1      -1.080 -11.034   0.435  1.00  0.00    -0.047 Br
HETATM   15  C   UNL     1      -0.886  -8.698   2.804  1.00  0.00     0.051 C 
BRANCH  11  16
HETATM   16  O   UNL     1      -2.619  -9.319  -1.860  1.00  0.00    -0.343 OA
BRANCH  16  17
HETATM   17  C   UNL     1      -2.785  -8.496  -3.016  1.00  0.00     0.176 C 
BRANCH  17  18
HETATM   18  C   UNL     1      -2.747  -9.395  -4.247  1.00  0.00     0.022 C 
HETATM   19  C   UNL     1      -2.865  -8.594  -5.532  1.00  0.00     0.007 C 
ENDBRANCH  17  18
ENDBRANCH  16  17
ENDBRANCH  11  16
ENDBRANCH   7   9
BRANCH   1  20
HETATM   20  C   UNL     1      -0.792  -1.224   0.112  1.00  0.00    -0.015 A 
HETATM   21  C   UNL     1      -1.234   0.090   0.333  1.00  0.00     0.123 A 
HETATM   22  C   UNL     1      -0.355   1.167   0.394  1.00  0.00     0.043 A 
HETATM   23  F   UNL     1      -2.545   0.337   0.474  1.00  0.00    -0.206 F 
HETATM   24  C   UNL     1       1.010   0.955   0.224  1.00  0.00     0.012 A 
HETATM   25  C   UNL     1       1.495  -0.338  -0.008  1.00  0.00    -0.030 A 
HETATM   26  C   UNL     1       0.586  -1.413  -0.070  1.00  0.00     0.019 A 
BRANCH  25  27
HETATM   27  C   UNL     1       2.969  -0.570  -0.240  1.00  0.00     0.305 C 
BRANCH  27  28
HETATM   28  N   UNL     1       3.499  -1.604   0.642  1.00  0.00     0.082 N 
HETATM   29  H   UNL     1       3.359  -1.310   1.609  1.00  0.00     0.313 HD
HETATM   30  H   UNL     1       4.506  -1.669   0.509  1.00  0.00     0.313 HD
ENDBRANCH  27  28
ENDBRANCH  25  27
ENDBRANCH   1  20
TORSDOF 7
