REMARK  7 active torsions:
REMARK  status: ('A' for Active; 'I' for Inactive)
REMARK    1  A    between atoms: C_5  and  C_10 
REMARK    2  A    between atoms: C_8  and  C_13 
REMARK    3  A    between atoms: N_9  and  C_22 
REMARK       I    between atoms: C_13  and  N_15 
REMARK    4  A    between atoms: N_15  and  C_16 
REMARK    5  A    between atoms: N_17  and  C_34 
REMARK    6  A    between atoms: C_22  and  C_23 
REMARK    7  A    between atoms: C_26  and  C_28 
ROOT
HETATM    1  C   UNL     1       0.075  -0.741   0.066  1.00  0.00     0.087 C 
HETATM    2  C   UNL     1      -0.067   0.604   0.401  1.00  0.00     0.065 C 
HETATM    3  C   UNL     1      -1.035  -1.591  -0.008  1.00  0.00     0.052 C 
HETATM    4  C   UNL     1      -1.317   1.098   0.799  1.00  0.00     0.033 C 
HETATM    5  C   UNL     1      -2.315  -1.083   0.251  1.00  0.00     0.043 C 
HETATM    6  C   UNL     1      -2.429   0.249   0.676  1.00  0.00     0.021 C 
HETATM    7  N   UNL     1       1.377  -1.044  -0.150  1.00  0.00    -0.224 NA
HETATM    8  C   UNL     1       2.066   0.076  -0.023  1.00  0.00     0.200 C 
HETATM    9  N   UNL     1       1.195   1.142   0.193  1.00  0.00    -0.319 N 
ENDROOT
BRANCH   8  10
HETATM   10  C   UNL     1       3.512  -0.004  -0.222  1.00  0.00     0.288 C 
HETATM   11  O   UNL     1       4.013  -1.028  -0.668  1.00  0.00    -0.264 OA
HETATM   12  N   UNL     1       4.317   1.071   0.122  1.00  0.00    -0.350 N 
HETATM   13  H   UNL     1       3.940   1.739   0.772  1.00  0.00     0.163 HD
BRANCH  12  14
HETATM   14  C   UNL     1       5.787   1.083   0.005  1.00  0.00     0.087 C 
HETATM   15  C   UNL     1       6.352   0.816  -1.397  1.00  0.00     0.044 C 
HETATM   16  C   UNL     1       6.639  -0.653  -1.708  1.00  0.00     0.119 C 
HETATM   17  N   UNL     1       7.345  -1.363  -0.646  1.00  0.00    -0.408 N 
HETATM   18  C   UNL     1       6.729  -1.206   0.673  1.00  0.00     0.119 C 
HETATM   19  C   UNL     1       6.508   0.253   1.072  1.00  0.00     0.044 C 
BRANCH  17  20
HETATM   20  C   UNL     1       8.808  -1.395  -0.666  1.00  0.00     0.079 A 
HETATM   21  C   UNL     1       9.672  -1.095  -1.859  1.00  0.00     0.027 A 
HETATM   22  C   UNL     1       9.409  -2.518  -1.482  1.00  0.00     0.027 A 
ENDBRANCH  17  20
ENDBRANCH  12  14
ENDBRANCH   8  10
BRANCH   9  23
HETATM   23  C   UNL     1       1.611   2.544   0.068  1.00  0.00     0.193 C 
BRANCH  23  24
HETATM   24  C   UNL     1       0.566   3.599  -0.028  1.00  0.00     0.083 C 
HETATM   25  C   UNL     1      -0.631   3.653  -0.781  1.00  0.00     0.072 C 
HETATM   26  C   UNL     1      -1.337   4.704  -0.230  1.00  0.00     0.120 C 
HETATM   27  O   UNL     1      -0.470   5.415   0.556  1.00  0.00    -0.212 OA
HETATM   28  N   UNL     1       0.719   4.724   0.686  1.00  0.00    -0.131 NA
BRANCH  26  29
HETATM   29  C   UNL     1      -2.747   4.964  -0.272  1.00  0.00     0.042 A 
HETATM   30  S   UNL     1      -3.393   6.530  -0.016  1.00  0.00    -0.075 SA
HETATM   31  C   UNL     1      -4.976   5.931  -0.015  1.00  0.00     0.075 A 
HETATM   32  C   UNL     1      -5.051   4.579  -0.217  1.00  0.00     0.033 A 
HETATM   33 CL   UNL     1      -6.294   7.001   0.248  1.00  0.00    -0.076 Cl
HETATM   34  C   UNL     1      -3.751   4.019  -0.395  1.00  0.00     0.024 A 
ENDBRANCH  26  29
ENDBRANCH  23  24
ENDBRANCH   9  23
BRANCH   5  35
HETATM   35  C   UNL     1      -3.539  -1.955   0.076  1.00  0.00     0.209 C 
HETATM   36  O   UNL     1      -3.350  -3.196  -0.116  1.00  0.00    -0.644 OA
HETATM   37  O   UNL     1      -4.667  -1.369   0.120  1.00  0.00    -0.644 OA
ENDBRANCH   5  35
TORSDOF 7
