REMARK  7 active torsions:
REMARK  status: ('A' for Active; 'I' for Inactive)
REMARK    1  A    between atoms: C_2  and  C_7 
REMARK    2  A    between atoms: C_2  and  C_8 
REMARK    3  A    between atoms: N_3  and  C_9 
REMARK    4  A    between atoms: C_7  and  C_22 
REMARK    5  A    between atoms: C_22  and  N_23 
REMARK    6  A    between atoms: C_28  and  C_29 
REMARK    7  A    between atoms: C_28  and  N_35 
REMARK       I    between atoms: N_35  and  C_36 
ROOT
HETATM    1  C   UNL     1       0.234   1.368  -0.349  1.00  0.00     0.175 C 
HETATM    2  C   UNL     1       1.049   0.175   0.212  1.00  0.00     0.106 C 
HETATM    3  N   UNL     1      -1.158   1.322   0.097  1.00  0.00    -0.313 N 
HETATM    4  O   UNL     1       0.457  -1.024  -0.354  1.00  0.00    -0.364 OA
HETATM    5  C   UNL     1      -1.845   0.116  -0.090  1.00  0.00     0.248 C 
HETATM    6  C   UNL     1      -0.943  -1.130  -0.163  1.00  0.00     0.272 C 
HETATM    7  O   UNL     1      -3.066  -0.010  -0.113  1.00  0.00    -0.271 OA
ENDROOT
BRANCH   2   8
HETATM    8  C   UNL     1       2.475   0.192  -0.436  1.00  0.00     0.075 C 
BRANCH   8   9
HETATM    9  C   UNL     1       3.492   1.279  -0.018  1.00  0.00     0.276 C 
BRANCH   9  10
HETATM   10  N   UNL     1       3.845   1.256   1.395  1.00  0.00     0.088 N 
HETATM   11  C   UNL     1       4.797   2.268   1.848  1.00  0.00     0.275 C 
HETATM   12  C   UNL     1       6.275   1.879   1.695  1.00  0.00     0.066 C 
HETATM   13  C   UNL     1       6.642   0.428   2.182  1.00  0.00     0.063 C 
HETATM   14  C   UNL     1       5.595  -0.489   1.540  1.00  0.00     0.066 C 
HETATM   15  C   UNL     1       4.203  -0.049   1.924  1.00  0.00     0.275 C 
BRANCH  13  16
HETATM   16  C   UNL     1       8.046   0.020   1.678  1.00  0.00    -0.027 A 
HETATM   17  C   UNL     1       8.409  -1.338   1.561  1.00  0.00     0.010 A 
HETATM   18  C   UNL     1       9.605  -1.729   0.948  1.00  0.00     0.004 A 
HETATM   19  C   UNL     1      10.484  -0.768   0.465  1.00  0.00     0.042 A 
HETATM   20  C   UNL     1      10.178   0.572   0.637  1.00  0.00     0.117 A 
HETATM   21  C   UNL     1       8.990   0.970   1.248  1.00  0.00     0.052 A 
HETATM   22  F   UNL     1      11.023   1.506   0.182  1.00  0.00    -0.206 F 
ENDBRANCH  13  16
BRANCH  13  23
HETATM   23  N   UNL     1       6.636   0.418   3.667  1.00  0.00    -0.348 N 
HETATM   24  C   UNL     1       6.315  -0.472   4.644  1.00  0.00     0.214 C 
HETATM   25  O   UNL     1       6.543  -0.138   5.810  1.00  0.00    -0.274 OA
HETATM   26  C   UNL     1       5.668  -1.804   4.364  1.00  0.00     0.117 C 
HETATM   27  H   UNL     1       7.117   1.202   4.092  1.00  0.00     0.163 HD
ENDBRANCH  13  23
ENDBRANCH   9  10
ENDBRANCH   8   9
ENDBRANCH   2   8
BRANCH   2  28
HETATM   28  C   UNL     1       1.053   0.094   1.756  1.00  0.00    -0.020 A 
HETATM   29  C   UNL     1       1.100   1.260   2.551  1.00  0.00     0.035 A 
HETATM   30  C   UNL     1       1.252   1.204   3.943  1.00  0.00     0.056 A 
HETATM   31  C   UNL     1       1.334  -0.032   4.580  1.00  0.00     0.055 A 
HETATM   32 CL   UNL     1       1.395   2.702   4.794  1.00  0.00    -0.083 Cl
HETATM   33  C   UNL     1       1.247  -1.203   3.824  1.00  0.00     0.026 A 
HETATM   34 CL   UNL     1       1.590  -0.186   6.281  1.00  0.00    -0.083 Cl
HETATM   35  C   UNL     1       1.108  -1.140   2.430  1.00  0.00     0.012 A 
ENDBRANCH   2  28
BRANCH   3  36
HETATM   36  C   UNL     1      -1.707   2.391   0.875  1.00  0.00     0.037 A 
HETATM   37  C   UNL     1      -2.722   2.137   1.811  1.00  0.00     0.029 A 
HETATM   38  C   UNL     1      -3.169   3.130   2.685  1.00  0.00     0.002 A 
HETATM   39  C   UNL     1      -2.615   4.403   2.634  1.00  0.00     0.000 A 
HETATM   40  C   UNL     1      -1.629   4.686   1.695  1.00  0.00     0.002 A 
HETATM   41  C   UNL     1      -1.184   3.691   0.818  1.00  0.00     0.029 A 
ENDBRANCH   3  36
TORSDOF 7
