REMARK  16 active torsions:
REMARK  status: ('A' for Active; 'I' for Inactive)
REMARK    1  A    between atoms: C_1  and  C_7 
REMARK    2  A    between atoms: C_1  and  C_13 
REMARK    3  A    between atoms: C_2  and  C_10 
REMARK    4  A    between atoms: C_2  and  C_22 
REMARK    5  A    between atoms: C_13  and  C_14 
REMARK    6  A    between atoms: C_14  and  C_15 
REMARK    7  A    between atoms: C_15  and  C_16 
REMARK    8  A    between atoms: C_16  and  C_17 
REMARK    9  A    between atoms: C_17  and  C_18 
REMARK   10  A    between atoms: C_18  and  C_19 
REMARK   11  A    between atoms: C_22  and  C_23 
REMARK   12  A    between atoms: C_23  and  C_24 
REMARK   13  A    between atoms: C_24  and  C_25 
REMARK   14  A    between atoms: C_25  and  C_26 
REMARK   15  A    between atoms: C_26  and  C_27 
REMARK   16  A    between atoms: C_27  and  C_28 
ROOT
HETATM    1  C   UNL     1       0.773   1.254  -0.303  1.00  0.00     0.066 C 
HETATM    2  C   UNL     1       1.539  -0.016   0.281  1.00  0.00     0.066 C 
HETATM    3  C   UNL     1       0.797  -1.345  -0.021  1.00  0.00     0.022 C 
HETATM    4  C   UNL     1      -0.722  -1.312  -0.164  1.00  0.00     0.001 C 
HETATM    5  C   UNL     1      -1.464  -0.034   0.209  1.00  0.00     0.001 C 
HETATM    6  C   UNL     1      -0.712   1.287   0.130  1.00  0.00     0.022 C 
ENDROOT
BRANCH   1   7
HETATM    7  C   UNL     1       1.364   2.640   0.273  1.00  0.00     0.183 C 
HETATM    8  O   UNL     1       1.884   3.450  -0.554  1.00  0.00    -0.647 OA
HETATM    9  O   UNL     1       1.140   2.881   1.500  1.00  0.00    -0.647 OA
ENDBRANCH   1   7
BRANCH   1  10
HETATM   10  C   UNL     1       0.835   1.456  -1.870  1.00  0.00     0.022 C 
BRANCH  10  11
HETATM   11  C   UNL     1       0.306   0.437  -2.889  1.00  0.00     0.001 C 
BRANCH  11  12
HETATM   12  C   UNL     1      -1.195   0.299  -3.149  1.00  0.00     0.000 C 
BRANCH  12  13
HETATM   13  C   UNL     1      -1.984   1.565  -3.474  1.00  0.00     0.000 C 
BRANCH  13  14
HETATM   14  C   UNL     1      -2.531   1.592  -4.903  1.00  0.00     0.000 C 
BRANCH  14  15
HETATM   15  C   UNL     1      -3.390   0.388  -5.322  1.00  0.00     0.004 C 
BRANCH  15  16
HETATM   16  C   UNL     1      -4.593   0.072  -4.414  1.00  0.00    -0.023 C 
HETATM   17  C   UNL     1      -5.643   1.180  -4.473  1.00  0.00     0.009 C 
HETATM   18  C   UNL     1      -5.213  -1.267  -4.823  1.00  0.00     0.009 C 
ENDBRANCH  15  16
ENDBRANCH  14  15
ENDBRANCH  13  14
ENDBRANCH  12  13
ENDBRANCH  11  12
ENDBRANCH  10  11
ENDBRANCH   1  10
BRANCH   2  19
HETATM   19  C   UNL     1       2.984  -0.211  -0.408  1.00  0.00     0.183 C 
HETATM   20  O   UNL     1       4.009  -0.112   0.329  1.00  0.00    -0.647 OA
HETATM   21  O   UNL     1       2.979  -0.588  -1.623  1.00  0.00    -0.647 OA
ENDBRANCH   2  19
BRANCH   2  22
HETATM   22  C   UNL     1       1.879   0.013   1.828  1.00  0.00     0.022 C 
BRANCH  22  23
HETATM   23  C   UNL     1       0.815   0.085   2.934  1.00  0.00     0.001 C 
BRANCH  23  24
HETATM   24  C   UNL     1      -0.108  -1.105   3.176  1.00  0.00     0.000 C 
BRANCH  24  25
HETATM   25  C   UNL     1       0.550  -2.427   3.565  1.00  0.00     0.000 C 
BRANCH  25  26
HETATM   26  C   UNL     1       0.208  -2.870   4.989  1.00  0.00     0.000 C 
BRANCH  26  27
HETATM   27  C   UNL     1      -1.289  -3.011   5.309  1.00  0.00     0.004 C 
BRANCH  27  28
HETATM   28  C   UNL     1      -2.088  -3.957   4.393  1.00  0.00    -0.023 C 
HETATM   29  C   UNL     1      -1.592  -5.398   4.503  1.00  0.00     0.009 C 
HETATM   30  C   UNL     1      -3.576  -3.882   4.747  1.00  0.00     0.009 C 
ENDBRANCH  27  28
ENDBRANCH  26  27
ENDBRANCH  25  26
ENDBRANCH  24  25
ENDBRANCH  23  24
ENDBRANCH  22  23
ENDBRANCH   2  22
TORSDOF 16
