REMARK  3 active torsions:
REMARK  status: ('A' for Active; 'I' for Inactive)
REMARK    1  A    between atoms: N_7  and  N_10 
REMARK       I    between atoms: N_10  and  C_13 
REMARK    2  A    between atoms: C_13  and  C_14 
REMARK    3  A    between atoms: C_18  and  C_21 
ROOT
HETATM    1  N   UNL     1       1.587   2.482   0.370  1.00  0.00    -0.259 N 
HETATM    2  C   UNL     1       0.932   3.389  -0.439  1.00  0.00     0.274 C 
HETATM    3  O   UNL     1       1.507   4.385  -0.862  1.00  0.00    -0.266 OA
HETATM    4  H   UNL     1       2.574   2.678   0.489  1.00  0.00     0.191 HD
ENDROOT
BRANCH   2   5
HETATM    5  C   UNL     1      -0.515   3.249  -0.658  1.00  0.00     0.075 A 
HETATM    6  C   UNL     1      -1.417   4.090  -0.030  1.00  0.00     0.050 A 
HETATM    7  N   UNL     1      -2.754   3.902  -0.130  1.00  0.00    -0.231 NA
HETATM    8  C   UNL     1      -0.975   5.240   0.828  1.00  0.00     0.071 C 
HETATM    9  C   UNL     1      -3.198   2.870  -0.885  1.00  0.00     0.178 A 
HETATM   10  N   UNL     1      -2.381   2.043  -1.580  1.00  0.00    -0.238 NA
HETATM   11  C   UNL     1      -1.053   2.264  -1.458  1.00  0.00     0.138 A 
BRANCH   9  12
HETATM   12  C   UNL     1      -4.657   2.580  -0.891  1.00  0.00     0.104 A 
HETATM   13  N   UNL     1      -5.491   3.558  -0.430  1.00  0.00    -0.257 NA
HETATM   14  C   UNL     1      -6.816   3.298  -0.391  1.00  0.00     0.117 A 
HETATM   15  C   UNL     1      -7.379   2.095  -0.786  1.00  0.00     0.019 A 
HETATM   16  C   UNL     1      -6.534   1.099  -1.258  1.00  0.00     0.004 A 
HETATM   17  C   UNL     1      -5.161   1.344  -1.315  1.00  0.00     0.036 A 
ENDBRANCH   9  12
ENDBRANCH   2   5
BRANCH   1  18
HETATM   18  N   UNL     1       1.321   1.157   0.293  1.00  0.00    -0.264 N 
HETATM   19  C   UNL     1       0.346   0.490   0.994  1.00  0.00     0.067 A 
HETATM   20  C   UNL     1      -0.626   0.926   1.917  1.00  0.00     0.035 A 
HETATM   21  C   UNL     1       0.439  -0.849   0.581  1.00  0.00     0.003 A 
HETATM   22  C   UNL     1      -1.546  -0.013   2.398  1.00  0.00     0.044 A 
HETATM   23  C   UNL     1      -1.474  -1.338   1.988  1.00  0.00     0.117 A 
HETATM   24  C   UNL     1      -0.491  -1.778   1.098  1.00  0.00     0.056 A 
HETATM   25  F   UNL     1      -2.370  -2.218   2.461  1.00  0.00    -0.206 F 
HETATM   26  C   UNL     1       1.548  -0.954  -0.332  1.00  0.00    -0.032 A 
HETATM   27  C   UNL     1       2.068   0.320  -0.478  1.00  0.00     0.124 A 
HETATM   28  C   UNL     1       2.053  -2.193  -0.987  1.00  0.00     0.050 C 
ENDBRANCH   1  18
TORSDOF 3
