REMARK  0 active torsions:
REMARK  status: ('A' for Active; 'I' for Inactive)
ROOT
HETATM    1  C   UNL     1      -0.158  -0.563   0.229  1.00  0.00     0.108 A 
HETATM    2  C   UNL     1      -0.208   0.794   0.940  1.00  0.00     0.108 A 
HETATM    3  O   UNL     1      -2.297   0.354  -0.033  1.00  0.00    -0.244 OA
HETATM    4  C   UNL     1      -1.536  -0.730  -0.312  1.00  0.00     0.272 A 
HETATM    5  C   UNL     1      -1.581   1.295   0.627  1.00  0.00     0.272 A 
HETATM    6  C   UNL     1       0.920  -0.354  -0.855  1.00  0.00     0.023 C 
HETATM    7  C   UNL     1       0.901   1.599   0.237  1.00  0.00     0.023 C 
HETATM    8  C   UNL     1       2.221   0.922   0.547  1.00  0.00    -0.025 C 
HETATM    9  C   UNL     1       2.238  -0.244  -0.120  1.00  0.00    -0.025 C 
HETATM   10  C   UNL     1       0.756   1.129  -1.217  1.00  0.00     0.018 C 
HETATM   11  O   UNL     1      -2.002   2.404   0.909  1.00  0.00    -0.264 OA
HETATM   12  O   UNL     1      -1.927  -1.706  -0.931  1.00  0.00    -0.264 OA
ENDROOT
TORSDOF 0
