REMARK  14 active torsions:
REMARK  status: ('A' for Active; 'I' for Inactive)
REMARK    1  A    between atoms: C_3  and  O_7 
REMARK    2  A    between atoms: C_4  and  O_7 
REMARK    3  A    between atoms: C_4  and  C_21 
REMARK    4  A    between atoms: C_8  and  C_13 
REMARK    5  A    between atoms: C_11  and  C_12 
REMARK    6  A    between atoms: C_12  and  C_19 
REMARK    7  A    between atoms: C_13  and  C_22 
REMARK    8  A    between atoms: C_14  and  O_23 
REMARK    9  A    between atoms: C_19  and  O_25 
REMARK   10  A    between atoms: C_19  and  C_20 
REMARK   11  A    between atoms: C_20  and  C_24 
REMARK   12  A    between atoms: C_21  and  C_28 
REMARK   13  A    between atoms: C_22  and  C_24 
REMARK   14  A    between atoms: C_24  and  O_26 
ROOT
HETATM    1  C   UNL     1       9.687  -9.135  -2.031  1.00  0.00    -0.053 C 
HETATM    2  C   UNL     1       8.283  -8.507  -2.039  1.00  0.00     0.053 C 
HETATM    3  C   UNL     1       7.782  -8.391  -3.502  1.00  0.00     0.143 C 
HETATM    4  C   UNL     1      10.208  -9.499  -0.731  1.00  0.00     0.004 C 
HETATM    5  C   UNL     1      10.443  -9.270  -3.135  1.00  0.00     0.012 C 
HETATM    6  C   UNL     1       8.345  -7.301  -1.032  1.00  0.00     0.004 C 
HETATM    7  C   UNL     1       9.713  -8.953   0.388  1.00  0.00    -0.022 C 
HETATM    8  C   UNL     1       8.847  -7.788  -4.424  1.00  0.00     0.069 C 
HETATM    9  C   UNL     1      10.050  -8.739  -4.480  1.00  0.00     0.144 C 
HETATM   10  C   UNL     1       8.601  -7.921   0.402  1.00  0.00     0.009 C 
HETATM   11  C   UNL     1       7.365  -8.581   1.037  1.00  0.00     0.014 C 
ENDROOT
BRANCH   6  12
HETATM   12  C   UNL     1       7.230  -6.221  -0.932  1.00  0.00     0.009 C 
BRANCH  12  13
HETATM   13  C   UNL     1       6.947  -5.460  -2.220  1.00  0.00     0.032 C 
BRANCH  13  14
HETATM   14  C   UNL     1       6.630  -3.961  -2.160  1.00  0.00     0.120 C 
BRANCH  14  15
HETATM   15  C   UNL     1       5.910  -3.627  -3.491  1.00  0.00     0.064 C 
BRANCH  15  16
HETATM   16  C   UNL     1       5.958  -2.189  -4.009  1.00  0.00     0.130 C 
BRANCH  16  17
HETATM   17  C   UNL     1       5.210  -2.129  -5.344  1.00  0.00     0.144 C 
BRANCH  17  18
HETATM   18  C   UNL     1       4.600  -0.785  -5.726  1.00  0.00     0.175 C 
HETATM   19  O   UNL     1       4.350   0.009  -4.782  1.00  0.00    -0.648 OA
HETATM   20  O   UNL     1       4.379  -0.655  -6.965  1.00  0.00    -0.648 OA
ENDBRANCH  17  18
ENDBRANCH  16  17
BRANCH  16  21
HETATM   21  O   UNL     1       7.351  -1.868  -4.176  1.00  0.00    -0.395 OA
HETATM   22  H   UNL     1       7.549  -1.945  -5.127  1.00  0.00     0.210 HD
ENDBRANCH  16  21
ENDBRANCH  15  16
ENDBRANCH  14  15
BRANCH  14  23
HETATM   23  O   UNL     1       7.858  -3.268  -1.973  1.00  0.00    -0.395 OA
HETATM   24  H   UNL     1       7.881  -2.545  -2.640  1.00  0.00     0.210 HD
ENDBRANCH  14  23
ENDBRANCH  13  14
ENDBRANCH  12  13
ENDBRANCH   6  12
BRANCH   3  25
HETATM   25  O   UNL     1       6.444  -7.882  -3.513  1.00  0.00    -0.315 OA
BRANCH  25  26
HETATM   26  C   UNL     1       5.843  -7.663  -4.708  1.00  0.00     0.263 C 
HETATM   27  O   UNL     1       6.292  -6.966  -5.606  1.00  0.00    -0.265 OA
BRANCH  26  28
HETATM   28  C   UNL     1       4.572  -8.475  -4.830  1.00  0.00     0.081 C 
HETATM   29  C   UNL     1       4.955  -9.957  -4.838  1.00  0.00     0.020 C 
BRANCH  28  30
HETATM   30  C   UNL     1       3.524  -8.197  -3.745  1.00  0.00     0.010 C 
HETATM   31  C   UNL     1       3.217  -6.726  -3.516  1.00  0.00     0.006 C 
ENDBRANCH  28  30
ENDBRANCH  26  28
ENDBRANCH  25  26
ENDBRANCH   3  25
BRANCH   9  32
HETATM   32  O   UNL     1       9.757  -9.854  -5.321  1.00  0.00    -0.392 OA
HETATM   33  H   UNL     1       9.342 -10.544  -4.776  1.00  0.00     0.210 HD
ENDBRANCH   9  32
TORSDOF 14
