REMARK  15 active torsions:
REMARK  status: ('A' for Active; 'I' for Inactive)
REMARK    1  A    between atoms: C_1  and  C_2 
REMARK    2  A    between atoms: C_2  and  C_3 
REMARK    3  A    between atoms: C_3  and  C_4 
REMARK    4  A    between atoms: C_4  and  C_5 
REMARK    5  A    between atoms: C_4  and  C_24 
REMARK    6  A    between atoms: C_5  and  O_11 
REMARK    7  A    between atoms: C_7  and  O_11 
REMARK    8  A    between atoms: C_7  and  C_14 
REMARK    9  A    between atoms: C_8  and  C_13 
REMARK   10  A    between atoms: C_8  and  O_12 
REMARK   11  A    between atoms: O_12  and  C_23 
REMARK   12  A    between atoms: C_13  and  C_16 
REMARK   13  A    between atoms: C_14  and  C_15 
REMARK   14  A    between atoms: C_15  and  C_16 
REMARK   15  A    between atoms: C_19  and  C_23 
ROOT
HETATM    1  C   UNL     1       3.092   6.186  -0.132  1.00  0.00     0.010 C 
ENDROOT
BRANCH   1   2
HETATM    2  C   UNL     1       2.437   4.958   0.495  1.00  0.00     0.111 C 
BRANCH   2   3
HETATM    3  C   UNL     1       0.929   5.042   0.427  1.00  0.00     0.258 C 
HETATM    4  O   UNL     1       0.294   5.878  -0.201  1.00  0.00    -0.265 OA
BRANCH   3   5
HETATM    5  O   UNL     1       0.383   4.012   1.132  1.00  0.00    -0.321 OA
BRANCH   5   6
HETATM    6  C   UNL     1      -1.036   3.876   0.982  1.00  0.00     0.183 C 
BRANCH   6   7
HETATM    7  C   UNL     1      -1.505   2.518   1.543  1.00  0.00     0.010 C 
BRANCH   7   8
HETATM    8  C   UNL     1      -0.987   1.309   0.715  1.00  0.00     0.007 C 
BRANCH   8   9
HETATM    9  C   UNL     1       0.535   1.155   0.676  1.00  0.00     0.000 C 
BRANCH   9  10
HETATM   10  C   UNL     1       0.973  -0.115  -0.054  1.00  0.00    -0.005 C 
HETATM   11  C   UNL     1       2.491  -0.196  -0.128  1.00  0.00     0.005 C 
ENDBRANCH   9  10
ENDBRANCH   8   9
ENDBRANCH   7   8
BRANCH   7  12
HETATM   12  C   UNL     1      -3.049   2.441   1.592  1.00  0.00     0.002 C 
HETATM   13  C   UNL     1      -3.705   3.491   2.478  1.00  0.00     0.005 C 
ENDBRANCH   7  12
ENDBRANCH   6   7
ENDBRANCH   5   6
ENDBRANCH   3   5
ENDBRANCH   2   3
ENDBRANCH   1   2
BRANCH   1  14
HETATM   14  C   UNL     1       4.617   6.092  -0.104  1.00  0.00     0.010 C 
BRANCH  14  15
HETATM   15  C   UNL     1       5.253   7.343  -0.710  1.00  0.00     0.111 C 
BRANCH  15  16
HETATM   16  C   UNL     1       6.761   7.285  -0.687  1.00  0.00     0.259 C 
HETATM   17  O   UNL     1       7.432   6.362  -0.248  1.00  0.00    -0.265 OA
BRANCH  16  18
HETATM   18  O   UNL     1       7.261   8.427  -1.230  1.00  0.00    -0.317 OA
BRANCH  18  19
HETATM   19  C   UNL     1       8.691   8.484  -1.254  1.00  0.00     0.217 C 
BRANCH  19  20
HETATM   20  C   UNL     1       9.092   9.789  -1.892  1.00  0.00    -0.034 A 
HETATM   21  C   UNL     1       9.720   9.813  -3.145  1.00  0.00     0.009 A 
HETATM   22  C   UNL     1      10.075  11.028  -3.735  1.00  0.00     0.001 A 
HETATM   23  C   UNL     1       9.804  12.228  -3.082  1.00  0.00     0.000 A 
HETATM   24  C   UNL     1       9.180  12.217  -1.836  1.00  0.00     0.001 A 
HETATM   25  C   UNL     1       8.825  11.004  -1.244  1.00  0.00     0.009 A 
ENDBRANCH  19  20
ENDBRANCH  18  19
ENDBRANCH  16  18
ENDBRANCH  15  16
ENDBRANCH  14  15
ENDBRANCH   1  14
TORSDOF 15
