REMARK  16 active torsions:
REMARK  status: ('A' for Active; 'I' for Inactive)
REMARK    1  A    between atoms: C_2  and  C_3 
REMARK    2  A    between atoms: C_3  and  C_4 
REMARK    3  A    between atoms: C_4  and  C_5 
REMARK    4  A    between atoms: C_5  and  C_6 
REMARK    5  A    between atoms: C_6  and  C_7 
REMARK    6  A    between atoms: C_7  and  C_8 
REMARK    7  A    between atoms: C_8  and  C_9 
REMARK    8  A    between atoms: C_9  and  C_10 
REMARK    9  A    between atoms: C_10  and  C_11 
REMARK   10  A    between atoms: C_11  and  C_12 
REMARK   11  A    between atoms: C_12  and  C_13 
REMARK   12  A    between atoms: C_13  and  C_14 
REMARK   13  A    between atoms: C_14  and  C_15 
REMARK   14  A    between atoms: C_15  and  S_16 
REMARK   15  A    between atoms: S_16  and  O_19 
REMARK   16  A    between atoms: O_19  and  C_20 
ROOT
HETATM    1  C   UNL     1      -5.221  -4.400  -7.481  1.00  0.00     0.001 C 
ENDROOT
BRANCH   1   2
HETATM    2  C   UNL     1      -3.695  -4.266  -7.490  1.00  0.00     0.000 C 
BRANCH   2   3
HETATM    3  C   UNL     1      -3.225  -2.809  -7.448  1.00  0.00     0.000 C 
BRANCH   3   4
HETATM    4  C   UNL     1      -3.614  -2.087  -6.153  1.00  0.00     0.000 C 
BRANCH   4   5
HETATM    5  C   UNL     1      -3.045  -2.750  -4.894  1.00  0.00     0.000 C 
BRANCH   5   6
HETATM    6  C   UNL     1      -1.513  -2.756  -4.858  1.00  0.00     0.000 C 
BRANCH   6   7
HETATM    7  C   UNL     1      -0.909  -1.348  -4.815  1.00  0.00     0.000 C 
BRANCH   7   8
HETATM    8  C   UNL     1      -1.329  -0.545  -3.578  1.00  0.00     0.000 C 
BRANCH   8   9
HETATM    9  C   UNL     1      -0.899  -1.193  -2.258  1.00  0.00     0.000 C 
BRANCH   9  10
HETATM   10  C   UNL     1       0.620  -1.306  -2.099  1.00  0.00     0.000 C 
BRANCH  10  11
HETATM   11  C   UNL     1       1.344   0.045  -2.074  1.00  0.00    -0.000 C 
BRANCH  11  12
HETATM   12  C   UNL     1       0.889   0.984  -0.953  1.00  0.00    -0.005 C 
HETATM   13  C   UNL     1       1.119   0.399   0.432  1.00  0.00     0.005 C 
ENDBRANCH  11  12
ENDBRANCH  10  11
ENDBRANCH   9  10
ENDBRANCH   8   9
ENDBRANCH   7   8
ENDBRANCH   6   7
ENDBRANCH   5   6
ENDBRANCH   4   5
ENDBRANCH   3   4
ENDBRANCH   2   3
ENDBRANCH   1   2
BRANCH   1  14
HETATM   14  C   UNL     1      -5.897  -3.903  -8.763  1.00  0.00     0.017 C 
BRANCH  14  15
HETATM   15  C   UNL     1      -5.415  -4.551 -10.060  1.00  0.00     0.171 C 
BRANCH  15  16
HETATM   16  S   UNL     1      -5.967  -6.232 -10.297  1.00  0.00     0.270 S 
HETATM   17  O   UNL     1      -7.398  -6.256 -10.078  1.00  0.00    -0.198 OA
HETATM   18  O   UNL     1      -5.379  -6.715 -11.533  1.00  0.00    -0.198 OA
BRANCH  16  19
HETATM   19  O   UNL     1      -5.173  -6.914  -9.042  1.00  0.00    -0.233 OA
BRANCH  19  20
HETATM   20  C   UNL     1      -5.473  -8.195  -8.666  1.00  0.00     0.089 A 
HETATM   21  C   UNL     1      -4.434  -9.125  -8.662  1.00  0.00     0.038 A 
HETATM   22  C   UNL     1      -4.688 -10.444  -8.286  1.00  0.00     0.003 A 
HETATM   23  C   UNL     1      -5.972 -10.824  -7.896  1.00  0.00     0.000 A 
HETATM   24  C   UNL     1      -6.997  -9.880  -7.854  1.00  0.00     0.003 A 
HETATM   25  C   UNL     1      -6.744  -8.560  -8.224  1.00  0.00     0.038 A 
ENDBRANCH  19  20
ENDBRANCH  16  19
ENDBRANCH  15  16
ENDBRANCH  14  15
ENDBRANCH   1  14
TORSDOF 16
