REMARK  27 active torsions:
REMARK  status: ('A' for Active; 'I' for Inactive)
REMARK    1  A    between atoms: C_1  and  C_4 
REMARK    2  A    between atoms: C_1  and  C_3 
REMARK    3  A    between atoms: C_1  and  O_12 
REMARK    4  A    between atoms: C_1  and  C_2 
REMARK    5  A    between atoms: C_2  and  C_9 
REMARK    6  A    between atoms: C_3  and  C_6 
REMARK    7  A    between atoms: C_4  and  O_5 
REMARK    8  A    between atoms: O_5  and  C_20 
REMARK    9  A    between atoms: C_6  and  O_7 
REMARK   10  A    between atoms: O_7  and  C_26 
REMARK   11  A    between atoms: C_9  and  O_11 
REMARK   12  A    between atoms: O_11  and  C_14 
REMARK   13  A    between atoms: O_12  and  C_32 
REMARK   14  A    between atoms: C_14  and  C_15 
REMARK   15  A    between atoms: C_15  and  C_16 
REMARK   16  A    between atoms: C_16  and  C_17 
REMARK   17  A    between atoms: C_17  and  C_18 
REMARK   18  A    between atoms: C_20  and  C_21 
REMARK   19  A    between atoms: C_21  and  C_22 
REMARK   20  A    between atoms: C_22  and  C_23 
REMARK   21  A    between atoms: C_23  and  C_24 
REMARK   22  A    between atoms: C_26  and  C_27 
REMARK   23  A    between atoms: C_27  and  C_28 
REMARK   24  A    between atoms: C_28  and  C_29 
REMARK   25  A    between atoms: C_29  and  C_30 
REMARK   26  A    between atoms: C_32  and  C_34 
REMARK   27  A    between atoms: C_34  and  C_35 
ROOT
HETATM    1  C   UNL     1       1.136   0.366  -0.147  1.00  0.00     0.175 C 
ENDROOT
BRANCH   1   2
HETATM    2  C   UNL     1       0.153  -0.569   0.639  1.00  0.00     0.295 C 
HETATM    3  O   UNL     1       0.037  -1.760   0.354  1.00  0.00    -0.262 OA
BRANCH   2   4
HETATM    4  O   UNL     1      -0.440  -0.070   1.757  1.00  0.00    -0.319 OA
BRANCH   4   5
HETATM    5  C   UNL     1      -1.614   0.762   1.655  1.00  0.00     0.178 C 
BRANCH   5   6
HETATM    6  C   UNL     1      -1.963   1.330   3.039  1.00  0.00     0.027 C 
BRANCH   6   7
HETATM    7  C   UNL     1      -2.328   2.817   2.942  1.00  0.00     0.002 C 
BRANCH   7   8
HETATM    8  C   UNL     1      -2.936   3.378   4.227  1.00  0.00    -0.000 C 
BRANCH   8   9
HETATM    9  C   UNL     1      -3.177   4.884   4.083  1.00  0.00    -0.005 C 
HETATM   10  C   UNL     1      -3.953   5.457   5.256  1.00  0.00     0.005 C 
ENDBRANCH   8   9
ENDBRANCH   7   8
ENDBRANCH   6   7
ENDBRANCH   5   6
ENDBRANCH   4   5
ENDBRANCH   2   4
ENDBRANCH   1   2
BRANCH   1  11
HETATM   11  C   UNL     1       1.131   1.829   0.322  1.00  0.00     0.161 C 
BRANCH  11  12
HETATM   12  C   UNL     1       1.398   2.063   1.807  1.00  0.00     0.262 C 
HETATM   13  O   UNL     1       0.958   3.033   2.411  1.00  0.00    -0.265 OA
BRANCH  12  14
HETATM   14  O   UNL     1       2.335   1.244   2.345  1.00  0.00    -0.321 OA
BRANCH  14  15
HETATM   15  C   UNL     1       1.907   0.180   3.213  1.00  0.00     0.178 C 
BRANCH  15  16
HETATM   16  C   UNL     1       3.054  -0.416   4.032  1.00  0.00     0.027 C 
BRANCH  16  17
HETATM   17  C   UNL     1       3.417  -1.818   3.508  1.00  0.00     0.002 C 
BRANCH  17  18
HETATM   18  C   UNL     1       4.453  -2.531   4.373  1.00  0.00    -0.000 C 
BRANCH  18  19
HETATM   19  C   UNL     1       4.771  -3.916   3.801  1.00  0.00    -0.005 C 
HETATM   20  C   UNL     1       5.753  -4.675   4.677  1.00  0.00     0.005 C 
ENDBRANCH  18  19
ENDBRANCH  17  18
ENDBRANCH  16  17
ENDBRANCH  15  16
ENDBRANCH  14  15
ENDBRANCH  12  14
ENDBRANCH  11  12
ENDBRANCH   1  11
BRANCH   1  21
HETATM   21  O   UNL     1       0.693   0.217  -1.559  1.00  0.00    -0.299 OA
BRANCH  21  22
HETATM   22  C   UNL     1      -0.646   0.243  -1.837  1.00  0.00     0.260 C 
HETATM   23  O   UNL     1      -1.455   0.889  -1.209  1.00  0.00    -0.265 OA
BRANCH  22  24
HETATM   24  C   UNL     1      -0.995  -0.718  -2.957  1.00  0.00     0.111 C 
BRANCH  24  25
HETATM   25  C   UNL     1      -2.491  -1.058  -2.929  1.00  0.00     0.005 C 
HETATM   26  C   UNL     1      -2.903  -1.979  -4.067  1.00  0.00     0.005 C 
ENDBRANCH  24  25
ENDBRANCH  22  24
ENDBRANCH  21  22
ENDBRANCH   1  21
BRANCH   1  27
HETATM   27  C   UNL     1       2.587  -0.260  -0.176  1.00  0.00     0.161 C 
BRANCH  27  28
HETATM   28  C   UNL     1       3.755   0.718  -0.025  1.00  0.00     0.262 C 
HETATM   29  O   UNL     1       3.954   1.652  -0.790  1.00  0.00    -0.265 OA
BRANCH  28  30
HETATM   30  O   UNL     1       4.490   0.470   1.097  1.00  0.00    -0.321 OA
BRANCH  30  31
HETATM   31  C   UNL     1       5.183   1.597   1.686  1.00  0.00     0.178 C 
BRANCH  31  32
HETATM   32  C   UNL     1       6.589   1.208   2.139  1.00  0.00     0.027 C 
BRANCH  32  33
HETATM   33  C   UNL     1       7.023   2.026   3.366  1.00  0.00     0.002 C 
BRANCH  33  34
HETATM   34  C   UNL     1       8.530   1.938   3.622  1.00  0.00    -0.000 C 
BRANCH  34  35
HETATM   35  C   UNL     1       8.919   2.642   4.925  1.00  0.00    -0.005 C 
HETATM   36  C   UNL     1      10.428   2.675   5.117  1.00  0.00     0.005 C 
ENDBRANCH  34  35
ENDBRANCH  33  34
ENDBRANCH  32  33
ENDBRANCH  31  32
ENDBRANCH  30  31
ENDBRANCH  28  30
ENDBRANCH  27  28
ENDBRANCH   1  27
TORSDOF 27
