REMARK  27 active torsions:
REMARK  status: ('A' for Active; 'I' for Inactive)
REMARK    1  A    between atoms: C_1  and  C_2 
REMARK    2  A    between atoms: C_1  and  O_27 
REMARK    3  A    between atoms: C_2  and  C_3 
REMARK    4  A    between atoms: C_3  and  C_4 
REMARK    5  A    between atoms: C_4  and  C_5 
REMARK    6  A    between atoms: C_5  and  C_6 
REMARK    7  A    between atoms: C_6  and  C_7 
REMARK    8  A    between atoms: C_9  and  C_10 
REMARK    9  A    between atoms: C_9  and  O_31 
REMARK   10  A    between atoms: C_10  and  C_11 
REMARK   11  A    between atoms: C_11  and  C_12 
REMARK   12  A    between atoms: C_12  and  C_13 
REMARK   13  A    between atoms: C_13  and  C_14 
REMARK   14  A    between atoms: C_14  and  C_15 
REMARK   15  A    between atoms: C_20  and  C_26 
REMARK   16  A    between atoms: C_21  and  C_29 
REMARK   17  A    between atoms: C_22  and  C_23 
REMARK   18  A    between atoms: C_23  and  O_24 
REMARK   19  A    between atoms: O_24  and  C_32 
REMARK   20  A    between atoms: C_26  and  O_27 
REMARK   21  A    between atoms: C_29  and  O_31 
REMARK   22  A    between atoms: C_32  and  C_33 
REMARK   23  A    between atoms: C_33  and  C_34 
REMARK   24  A    between atoms: C_34  and  C_35 
REMARK   25  A    between atoms: C_35  and  C_36 
REMARK   26  A    between atoms: C_36  and  C_37 
REMARK   27  A    between atoms: C_37  and  C_38 
ROOT
HETATM    1  C   UNL     1       1.464  -2.328   3.777  1.00  0.00     0.020 A 
HETATM    2  C   UNL     1       0.660  -1.520   4.608  1.00  0.00     0.018 A 
HETATM    3  C   UNL     1       1.436   0.394   3.428  1.00  0.00     0.036 A 
HETATM    4  C   UNL     1       2.207  -0.420   2.565  1.00  0.00     0.056 A 
HETATM    5  C   UNL     1       0.635  -0.144   4.426  1.00  0.00     0.040 A 
HETATM    6  C   UNL     1       2.269  -1.820   2.715  1.00  0.00     0.055 A 
ENDROOT
BRANCH   4   7
HETATM    7  C   UNL     1       2.864   0.450   1.586  1.00  0.00     0.294 C 
HETATM    8  O   UNL     1       3.986   0.880   1.808  1.00  0.00    -0.259 OA
BRANCH   7   9
HETATM    9  O   UNL     1       2.119   0.834   0.513  1.00  0.00    -0.317 OA
BRANCH   9  10
HETATM   10  C   UNL     1       0.756   0.396   0.302  1.00  0.00     0.179 C 
BRANCH  10  11
HETATM   11  C   UNL     1       0.354   0.705  -1.136  1.00  0.00     0.027 C 
BRANCH  11  12
HETATM   12  C   UNL     1      -1.154   0.538  -1.310  1.00  0.00     0.002 C 
BRANCH  12  13
HETATM   13  C   UNL     1      -1.629   0.950  -2.703  1.00  0.00     0.000 C 
BRANCH  13  14
HETATM   14  C   UNL     1      -3.158   0.938  -2.766  1.00  0.00     0.000 C 
BRANCH  14  15
HETATM   15  C   UNL     1      -3.677   1.399  -4.127  1.00  0.00    -0.000 C 
BRANCH  15  16
HETATM   16  C   UNL     1      -5.206   1.416  -4.149  1.00  0.00    -0.005 C 
HETATM   17  C   UNL     1      -5.741   1.877  -5.494  1.00  0.00     0.005 C 
ENDBRANCH  15  16
ENDBRANCH  14  15
ENDBRANCH  13  14
ENDBRANCH  12  13
ENDBRANCH  11  12
ENDBRANCH  10  11
ENDBRANCH   9  10
ENDBRANCH   7   9
ENDBRANCH   4   7
BRANCH   6  18
HETATM   18  C   UNL     1       3.045  -2.928   1.980  1.00  0.00     0.294 C 
HETATM   19  O   UNL     1       3.094  -4.019   2.555  1.00  0.00    -0.259 OA
BRANCH  18  20
HETATM   20  O   UNL     1       3.609  -2.889   0.737  1.00  0.00    -0.317 OA
BRANCH  20  21
HETATM   21  C   UNL     1       3.848  -1.665   0.087  1.00  0.00     0.179 C 
BRANCH  21  22
HETATM   22  C   UNL     1       4.571  -1.672  -1.253  1.00  0.00     0.027 C 
BRANCH  22  23
HETATM   23  C   UNL     1       4.610  -0.199  -1.697  1.00  0.00     0.002 C 
BRANCH  23  24
HETATM   24  C   UNL     1       5.347   0.071  -2.997  1.00  0.00     0.000 C 
BRANCH  24  25
HETATM   25  C   UNL     1       5.311   1.575  -3.304  1.00  0.00     0.000 C 
BRANCH  25  26
HETATM   26  C   UNL     1       6.037   1.884  -4.609  1.00  0.00    -0.000 C 
BRANCH  26  27
HETATM   27  C   UNL     1       6.017   3.377  -4.933  1.00  0.00    -0.005 C 
HETATM   28  C   UNL     1       6.744   3.652  -6.240  1.00  0.00     0.005 C 
ENDBRANCH  26  27
ENDBRANCH  25  26
ENDBRANCH  24  25
ENDBRANCH  23  24
ENDBRANCH  22  23
ENDBRANCH  21  22
ENDBRANCH  20  21
ENDBRANCH  18  20
ENDBRANCH   6  18
BRANCH   5  29
HETATM   29  C   UNL     1      -0.257   0.727   5.239  1.00  0.00     0.293 C 
HETATM   30  O   UNL     1      -0.951   0.332   6.160  1.00  0.00    -0.259 OA
BRANCH  29  31
HETATM   31  O   UNL     1      -0.206   1.989   4.747  1.00  0.00    -0.318 OA
BRANCH  31  32
HETATM   32  C   UNL     1      -1.070   2.948   5.369  1.00  0.00     0.179 C 
BRANCH  32  33
HETATM   33  C   UNL     1      -0.811   4.304   4.710  1.00  0.00     0.027 C 
BRANCH  33  34
HETATM   34  C   UNL     1      -1.704   5.388   5.306  1.00  0.00     0.002 C 
BRANCH  34  35
HETATM   35  C   UNL     1      -1.451   6.763   4.681  1.00  0.00     0.000 C 
BRANCH  35  36
HETATM   36  C   UNL     1      -2.360   7.817   5.319  1.00  0.00     0.000 C 
BRANCH  36  37
HETATM   37  C   UNL     1      -2.134   9.209   4.727  1.00  0.00    -0.000 C 
BRANCH  37  38
HETATM   38  C   UNL     1      -3.053  10.239   5.386  1.00  0.00    -0.005 C 
HETATM   39  C   UNL     1      -2.843  11.630   4.812  1.00  0.00     0.005 C 
ENDBRANCH  37  38
ENDBRANCH  36  37
ENDBRANCH  35  36
ENDBRANCH  34  35
ENDBRANCH  33  34
ENDBRANCH  32  33
ENDBRANCH  31  32
ENDBRANCH  29  31
ENDBRANCH   5  29
TORSDOF 27
