REMARK  11 active torsions:
REMARK  status: ('A' for Active; 'I' for Inactive)
REMARK    1  A    between atoms: C_1  and  C_2 
REMARK    2  A    between atoms: C_1  and  O_7 
REMARK    3  A    between atoms: C_2  and  C_3 
REMARK    4  A    between atoms: C_3  and  C_4 
REMARK    5  A    between atoms: C_4  and  C_5 
REMARK    6  A    between atoms: C_5  and  C_6 
REMARK    7  A    between atoms: C_6  and  O_8 
REMARK    8  A    between atoms: O_7  and  C_9 
REMARK    9  A    between atoms: O_8  and  C_17 
REMARK   10  A    between atoms: C_9  and  C_11 
REMARK   11  A    between atoms: C_17  and  C_19 
ROOT
HETATM    1  C   UNL     1      -1.135  -1.431  -0.293  1.00  0.00     0.002 C 
ENDROOT
BRANCH   1   2
HETATM    2  C   UNL     1       0.394  -1.389  -0.293  1.00  0.00     0.027 C 
BRANCH   2   3
HETATM    3  C   UNL     1       0.919   0.029  -0.097  1.00  0.00     0.179 C 
BRANCH   3   4
HETATM    4  O   UNL     1       2.353  -0.004  -0.131  1.00  0.00    -0.318 OA
BRANCH   4   5
HETATM    5  C   UNL     1       2.935   1.187   0.161  1.00  0.00     0.293 C 
HETATM    6  O   UNL     1       2.345   2.223   0.428  1.00  0.00    -0.259 OA
BRANCH   5   7
HETATM    7  C   UNL     1       4.417   1.070   0.160  1.00  0.00     0.039 A 
HETATM    8  C   UNL     1       5.086  -0.012  -0.428  1.00  0.00     0.017 A 
HETATM    9  C   UNL     1       6.482  -0.067  -0.404  1.00  0.00     0.001 A 
HETATM   10  C   UNL     1       7.214   0.951   0.208  1.00  0.00     0.000 A 
HETATM   11  C   UNL     1       6.554   2.032   0.791  1.00  0.00     0.001 A 
HETATM   12  C   UNL     1       5.160   2.094   0.764  1.00  0.00     0.017 A 
ENDBRANCH   5   7
ENDBRANCH   4   5
ENDBRANCH   3   4
ENDBRANCH   2   3
ENDBRANCH   1   2
BRANCH   1  13
HETATM   13  C   UNL     1      -1.650  -2.858  -0.485  1.00  0.00     0.002 C 
BRANCH  13  14
HETATM   14  C   UNL     1      -3.178  -2.918  -0.548  1.00  0.00     0.027 C 
BRANCH  14  15
HETATM   15  C   UNL     1      -3.657  -4.359  -0.706  1.00  0.00     0.179 C 
BRANCH  15  16
HETATM   16  O   UNL     1      -5.087  -4.380  -0.824  1.00  0.00    -0.318 OA
BRANCH  16  17
HETATM   17  C   UNL     1      -5.630  -5.602  -0.589  1.00  0.00     0.293 C 
HETATM   18  O   UNL     1      -5.025  -6.619  -0.284  1.00  0.00    -0.259 OA
BRANCH  17  19
HETATM   19  C   UNL     1      -7.105  -5.543  -0.686  1.00  0.00     0.039 A 
HETATM   20  C   UNL     1      -7.856  -6.333   0.194  1.00  0.00     0.017 A 
HETATM   21  C   UNL     1      -9.248  -6.334   0.116  1.00  0.00     0.001 A 
HETATM   22  C   UNL     1      -9.891  -5.561  -0.851  1.00  0.00     0.000 A 
HETATM   23  C   UNL     1      -9.145  -4.781  -1.737  1.00  0.00     0.001 A 
HETATM   24  C   UNL     1      -7.750  -4.766  -1.654  1.00  0.00     0.017 A 
ENDBRANCH  17  19
ENDBRANCH  16  17
ENDBRANCH  15  16
ENDBRANCH  14  15
ENDBRANCH  13  14
ENDBRANCH   1  13
TORSDOF 11
