REMARK  10 active torsions:
REMARK  status: ('A' for Active; 'I' for Inactive)
REMARK    1  A    between atoms: O_1  and  C_2 
REMARK    2  A    between atoms: O_1  and  C_3 
REMARK    3  A    between atoms: C_2  and  C_11 
REMARK    4  A    between atoms: C_3  and  C_4 
REMARK    5  A    between atoms: C_11  and  C_23 
REMARK    6  A    between atoms: C_12  and  C_13 
REMARK    7  A    between atoms: C_12  and  C_23 
REMARK    8  A    between atoms: C_13  and  O_14 
REMARK    9  A    between atoms: O_14  and  C_15 
REMARK   10  A    between atoms: C_15  and  C_16 
ROOT
HETATM    1  C   UNL     1      -2.043   1.518  -1.703  1.00  0.00     0.004 C 
ENDROOT
BRANCH   1   2
HETATM    2  C   UNL     1      -1.245   0.626  -0.753  1.00  0.00     0.027 C 
BRANCH   2   3
HETATM    3  C   UNL     1       0.248   0.887  -0.931  1.00  0.00     0.179 C 
BRANCH   3   4
HETATM    4  O   UNL     1       0.991   0.122   0.036  1.00  0.00    -0.318 OA
BRANCH   4   5
HETATM    5  C   UNL     1       2.346   0.018  -0.037  1.00  0.00     0.293 C 
HETATM    6  O   UNL     1       2.982  -0.806   0.606  1.00  0.00    -0.259 OA
BRANCH   5   7
HETATM    7  C   UNL     1       3.043   0.936  -0.961  1.00  0.00     0.039 A 
HETATM    8  C   UNL     1       3.053   2.314  -0.716  1.00  0.00     0.017 A 
HETATM    9  C   UNL     1       3.658   3.171  -1.635  1.00  0.00     0.001 A 
HETATM   10  C   UNL     1       4.274   2.649  -2.774  1.00  0.00     0.000 A 
HETATM   11  C   UNL     1       4.302   1.270  -2.990  1.00  0.00     0.001 A 
HETATM   12  C   UNL     1       3.690   0.407  -2.081  1.00  0.00     0.017 A 
ENDBRANCH   5   7
ENDBRANCH   4   5
ENDBRANCH   3   4
ENDBRANCH   2   3
ENDBRANCH   1   2
BRANCH   1  13
HETATM   13  C   UNL     1      -3.549   1.325  -1.564  1.00  0.00     0.027 C 
BRANCH  13  14
HETATM   14  C   UNL     1      -4.305   2.243  -2.525  1.00  0.00     0.179 C 
BRANCH  14  15
HETATM   15  O   UNL     1      -5.711   1.961  -2.398  1.00  0.00    -0.318 OA
BRANCH  15  16
HETATM   16  C   UNL     1      -6.657   2.814  -2.865  1.00  0.00     0.293 C 
HETATM   17  O   UNL     1      -7.820   2.777  -2.489  1.00  0.00    -0.259 OA
BRANCH  16  18
HETATM   18  C   UNL     1      -6.242   3.809  -3.874  1.00  0.00     0.039 A 
HETATM   19  C   UNL     1      -6.337   5.169  -3.561  1.00  0.00     0.017 A 
HETATM   20  C   UNL     1      -5.995   6.122  -4.520  1.00  0.00     0.001 A 
HETATM   21  C   UNL     1      -5.575   5.716  -5.789  1.00  0.00     0.000 A 
HETATM   22  C   UNL     1      -5.500   4.357  -6.105  1.00  0.00     0.001 A 
HETATM   23  C   UNL     1      -5.840   3.399  -5.149  1.00  0.00     0.017 A 
ENDBRANCH  16  18
ENDBRANCH  15  16
ENDBRANCH  14  15
ENDBRANCH  13  14
ENDBRANCH   1  13
TORSDOF 10
