REMARK  8 active torsions:
REMARK  status: ('A' for Active; 'I' for Inactive)
REMARK    1  A    between atoms: C_1  and  C_10 
REMARK    2  A    between atoms: C_6  and  C_11 
REMARK    3  A    between atoms: C_7  and  O_9 
REMARK    4  A    between atoms: C_7  and  C_10 
REMARK    5  A    between atoms: C_11  and  O_12 
REMARK    6  A    between atoms: O_12  and  C_15 
REMARK    7  A    between atoms: C_14  and  C_19 
REMARK    8  A    between atoms: C_23  and  O_24 
ROOT
HETATM    1  C   UNL     1      -1.431  -0.204  -0.216  1.00  0.00    -0.010 A 
HETATM    2  C   UNL     1      -0.601   0.922  -0.419  1.00  0.00     0.013 A 
HETATM    3  C   UNL     1       0.760   0.902  -0.115  1.00  0.00     0.001 A 
HETATM    4  C   UNL     1       1.334  -0.257   0.384  1.00  0.00     0.001 A 
HETATM    5  C   UNL     1       0.537  -1.376   0.614  1.00  0.00     0.010 A 
HETATM    6  C   UNL     1      -0.854  -1.368   0.350  1.00  0.00    -0.023 A 
ENDROOT
BRANCH   6   7
HETATM    7  C   UNL     1      -1.571  -2.690   0.607  1.00  0.00     0.216 C 
BRANCH   7   8
HETATM    8  O   UNL     1      -2.960  -2.539   0.900  1.00  0.00    -0.330 OA
BRANCH   8   9
HETATM    9  C   UNL     1      -3.678  -3.684   0.609  1.00  0.00     0.165 A 
HETATM   10  N   UNL     1      -3.055  -4.883   0.600  1.00  0.00    -0.220 NA
HETATM   11  C   UNL     1      -3.789  -5.972   0.226  1.00  0.00     0.143 A 
HETATM   12  C   UNL     1      -5.125  -5.862  -0.168  1.00  0.00     0.036 A 
HETATM   13  C   UNL     1      -5.743  -4.616  -0.128  1.00  0.00     0.007 A 
HETATM   14  C   UNL     1      -5.014  -3.510   0.292  1.00  0.00     0.058 A 
BRANCH  11  15
HETATM   15  C   UNL     1      -3.137  -7.348   0.204  1.00  0.00     0.434 C 
HETATM   16  F   UNL     1      -3.904  -8.300   0.815  1.00  0.00    -0.165 F 
HETATM   17  F   UNL     1      -2.935  -7.807  -1.066  1.00  0.00    -0.165 F 
HETATM   18  F   UNL     1      -1.921  -7.406   0.818  1.00  0.00    -0.165 F 
ENDBRANCH  11  15
ENDBRANCH   8   9
ENDBRANCH   7   8
ENDBRANCH   6   7
BRANCH   1  19
HETATM   19  C   UNL     1      -2.837  -0.102  -0.691  1.00  0.00     0.072 C 
HETATM   20  C   UNL     1      -3.659   0.915  -0.356  1.00  0.00     0.152 C 
BRANCH  19  21
HETATM   21  C   UNL     1      -3.440  -1.080  -1.651  1.00  0.00     0.295 C 
HETATM   22  O   UNL     1      -4.631  -1.137  -1.929  1.00  0.00    -0.259 OA
BRANCH  21  23
HETATM   23  O   UNL     1      -2.480  -1.887  -2.170  1.00  0.00    -0.322 OA
HETATM   24  C   UNL     1      -2.954  -2.988  -2.945  1.00  0.00     0.213 C 
ENDBRANCH  21  23
ENDBRANCH  19  21
BRANCH  20  25
HETATM   25  O   UNL     1      -3.305   1.973   0.445  1.00  0.00    -0.367 OA
HETATM   26  C   UNL     1      -3.981   3.174   0.074  1.00  0.00     0.208 C 
ENDBRANCH  20  25
ENDBRANCH   1  19
TORSDOF 8
