REMARK  1 active torsions:
REMARK  status: ('A' for Active; 'I' for Inactive)
REMARK    1  A    between atoms: C_13  and  O_14 
ROOT
HETATM    1  C   UNL     1      -1.165   0.878   0.002  1.00  0.00    -0.043 A 
HETATM    2  C   UNL     1      -0.717  -0.461   0.000  1.00  0.00    -0.019 A 
HETATM    3  C   UNL     1      -2.515   1.190   0.003  1.00  0.00     0.008 A 
HETATM    4  C   UNL     1      -1.626  -1.505  -0.001  1.00  0.00     0.013 A 
HETATM    5  C   UNL     1      -3.430   0.136   0.001  1.00  0.00     0.001 A 
HETATM    6  C   UNL     1      -2.990  -1.199  -0.001  1.00  0.00     0.001 A 
HETATM    7  C   UNL     1       0.015   1.828   0.004  1.00  0.00     0.078 A 
HETATM    8  C   UNL     1       1.190   0.870   0.003  1.00  0.00    -0.043 A 
HETATM    9  C   UNL     1       0.731  -0.466   0.001  1.00  0.00    -0.016 A 
HETATM   10  C   UNL     1       2.542   1.173   0.003  1.00  0.00     0.011 A 
HETATM   11  C   UNL     1       3.452   0.113   0.001  1.00  0.00     0.037 A 
HETATM   12  C   UNL     1       1.631  -1.517  -0.001  1.00  0.00     0.049 A 
HETATM   13  C   UNL     1       2.992  -1.213  -0.001  1.00  0.00     0.066 A 
ENDROOT
BRANCH  13  14
HETATM   14  O   UNL     1       3.870  -2.259  -0.002  1.00  0.00    -0.361 OA
HETATM   15  H   UNL     1       4.774  -1.905  -0.002  1.00  0.00     0.217 HD
ENDBRANCH  13  14
TORSDOF 1
