REMARK  11 active torsions:
REMARK  status: ('A' for Active; 'I' for Inactive)
REMARK    1  A    between atoms: C_1  and  C_2 
REMARK    2  A    between atoms: C_1  and  O_13 
REMARK    3  A    between atoms: C_2  and  C_3 
REMARK    4  A    between atoms: C_3  and  C_4 
REMARK    5  A    between atoms: C_4  and  C_5 
REMARK    6  A    between atoms: C_5  and  C_6 
REMARK    7  A    between atoms: C_6  and  C_7 
REMARK    8  A    between atoms: C_7  and  C_8 
REMARK    9  A    between atoms: C_8  and  C_9 
REMARK   10  A    between atoms: C_9  and  C_10 
REMARK   11  A    between atoms: C_10  and  C_11 
ROOT
HETATM    1  C   UNL     1      -3.245   1.642   0.124  1.00  0.00     0.384 C 
HETATM    2  F   UNL     1      -3.972   1.631   1.280  1.00  0.00    -0.192 F 
HETATM    3  F   UNL     1      -2.389   2.693   0.284  1.00  0.00    -0.192 F 
ENDROOT
BRANCH   1   4
HETATM    4  C   UNL     1      -2.418   0.360   0.045  1.00  0.00     0.384 C 
HETATM    5  F   UNL     1      -3.272  -0.705   0.037  1.00  0.00    -0.192 F 
HETATM    6  F   UNL     1      -1.713   0.189   1.211  1.00  0.00    -0.192 F 
BRANCH   4   7
HETATM    7  C   UNL     1      -1.431   0.220  -1.112  1.00  0.00     0.385 C 
HETATM    8  F   UNL     1      -2.141   0.170  -2.276  1.00  0.00    -0.192 F 
HETATM    9  F   UNL     1      -0.846  -1.011  -1.011  1.00  0.00    -0.192 F 
BRANCH   7  10
HETATM   10  C   UNL     1      -0.329   1.271  -1.235  1.00  0.00     0.388 C 
HETATM   11  F   UNL     1      -0.918   2.482  -1.459  1.00  0.00    -0.192 F 
HETATM   12  F   UNL     1       0.389   1.021  -2.370  1.00  0.00    -0.192 F 
BRANCH  10  13
HETATM   13  C   UNL     1       0.623   1.379  -0.048  1.00  0.00     0.396 C 
HETATM   14  F   UNL     1      -0.073   1.645   1.095  1.00  0.00    -0.187 F 
HETATM   15  F   UNL     1       1.429   2.471  -0.221  1.00  0.00    -0.187 F 
BRANCH  13  16
HETATM   16  C   UNL     1       1.453   0.111   0.098  1.00  0.00     0.222 C 
HETATM   17  O   UNL     1       2.498  -0.105  -0.503  1.00  0.00    -0.645 OA
BRANCH  16  18
HETATM   18  O   UNL     1       0.943  -0.806   0.963  1.00  0.00    -0.772 OA
HETATM   19  H   UNL     1       0.142  -0.549   1.470  1.00  0.00     0.167 HD
ENDBRANCH  16  18
ENDBRANCH  13  16
ENDBRANCH  10  13
ENDBRANCH   7  10
ENDBRANCH   4   7
ENDBRANCH   1   4
BRANCH   1  20
HETATM   20  C   UNL     1      -4.192   1.937  -1.039  1.00  0.00     0.384 C 
HETATM   21  F   UNL     1      -4.767   3.161  -0.844  1.00  0.00    -0.192 F 
HETATM   22  F   UNL     1      -3.442   2.092  -2.169  1.00  0.00    -0.192 F 
BRANCH  20  23
HETATM   23  C   UNL     1      -5.304   0.929  -1.316  1.00  0.00     0.384 C 
HETATM   24  F   UNL     1      -5.972   1.300  -2.447  1.00  0.00    -0.192 F 
HETATM   25  F   UNL     1      -4.727  -0.263  -1.651  1.00  0.00    -0.192 F 
BRANCH  23  26
HETATM   26  C   UNL     1      -6.325   0.692  -0.209  1.00  0.00     0.387 C 
HETATM   27  F   UNL     1      -7.183  -0.292  -0.623  1.00  0.00    -0.192 F 
HETATM   28  F   UNL     1      -5.672   0.143   0.860  1.00  0.00    -0.192 F 
BRANCH  26  29
HETATM   29  C   UNL     1      -7.146   1.877   0.269  1.00  0.00     0.409 C 
HETATM   30  F   UNL     1      -7.960   1.453   1.288  1.00  0.00    -0.189 F 
HETATM   31  F   UNL     1      -6.333   2.810   0.836  1.00  0.00    -0.189 F 
BRANCH  29  32
HETATM   32  C   UNL     1      -7.998   2.492  -0.826  1.00  0.00     0.461 C 
HETATM   33  F   UNL     1      -8.782   1.579  -1.438  1.00  0.00    -0.165 F 
HETATM   34  F   UNL     1      -8.813   3.457  -0.337  1.00  0.00    -0.165 F 
HETATM   35  F   UNL     1      -7.241   3.080  -1.779  1.00  0.00    -0.165 F 
ENDBRANCH  29  32
ENDBRANCH  26  29
ENDBRANCH  23  26
ENDBRANCH  20  23
ENDBRANCH   1  20
TORSDOF 11
