REMARK  10 active torsions:
REMARK  status: ('A' for Active; 'I' for Inactive)
REMARK    1  A    between atoms: C_1  and  C_2 
REMARK    2  A    between atoms: C_1  and  O_5 
REMARK    3  A    between atoms: O_5  and  C_7 
REMARK    4  A    between atoms: C_7  and  C_8 
REMARK    5  A    between atoms: C_8  and  C_9 
REMARK    6  A    between atoms: C_9  and  C_10 
REMARK    7  A    between atoms: C_10  and  C_11 
REMARK    8  A    between atoms: C_11  and  C_12 
REMARK    9  A    between atoms: C_12  and  C_13 
REMARK   10  A    between atoms: C_13  and  C_14 
ROOT
HETATM    1  C   UNL     1       5.063   1.767  -2.851  1.00  0.00     0.378 C 
HETATM    2  F   UNL     1       6.057   2.569  -3.346  1.00  0.00    -0.192 F 
HETATM    3  F   UNL     1       5.307   0.529  -3.390  1.00  0.00    -0.192 F 
ENDROOT
BRANCH   1   4
HETATM    4  C   UNL     1       5.239   1.657  -1.323  1.00  0.00     0.316 C 
HETATM    5  F   UNL     1       5.144   2.889  -0.756  1.00  0.00    -0.199 F 
HETATM    6  F   UNL     1       6.543   1.278  -1.101  1.00  0.00    -0.199 F 
BRANCH   4   7
HETATM    7  C   UNL     1       4.390   0.669  -0.515  1.00  0.00     0.113 C 
BRANCH   7   8
HETATM    8  C   UNL     1       2.954   1.116  -0.299  1.00  0.00     0.185 C 
BRANCH   8   9
HETATM    9  O   UNL     1       2.213   0.174   0.481  1.00  0.00    -0.318 OA
BRANCH   9  10
HETATM   10  C   UNL     1       0.867  -0.005   0.436  1.00  0.00     0.288 C 
HETATM   11  O   UNL     1       0.405  -0.983   1.029  1.00  0.00    -0.260 OA
BRANCH  10  12
HETATM   12  C   UNL     1      -0.062   0.928  -0.284  1.00  0.00     0.004 C 
HETATM   13  C   UNL     1      -1.364   0.573  -0.288  1.00  0.00     0.024 C 
HETATM   14  C   UNL     1       0.280   2.222  -0.953  1.00  0.00     0.054 C 
ENDBRANCH  10  12
ENDBRANCH   9  10
ENDBRANCH   8   9
ENDBRANCH   7   8
ENDBRANCH   4   7
ENDBRANCH   1   4
BRANCH   1  15
HETATM   15  C   UNL     1       3.748   2.275  -3.432  1.00  0.00     0.384 C 
HETATM   16  F   UNL     1       3.823   2.284  -4.793  1.00  0.00    -0.192 F 
HETATM   17  F   UNL     1       2.782   1.338  -3.181  1.00  0.00    -0.192 F 
BRANCH  15  18
HETATM   18  C   UNL     1       3.244   3.630  -2.955  1.00  0.00     0.387 C 
HETATM   19  F   UNL     1       1.947   3.776  -3.376  1.00  0.00    -0.192 F 
HETATM   20  F   UNL     1       3.135   3.590  -1.593  1.00  0.00    -0.192 F 
BRANCH  18  21
HETATM   21  C   UNL     1       4.018   4.869  -3.351  1.00  0.00     0.409 C 
HETATM   22  F   UNL     1       3.470   5.936  -2.682  1.00  0.00    -0.189 F 
HETATM   23  F   UNL     1       5.300   4.793  -2.910  1.00  0.00    -0.189 F 
BRANCH  21  24
HETATM   24  C   UNL     1       3.957   5.151  -4.843  1.00  0.00     0.461 C 
HETATM   25  F   UNL     1       2.687   5.162  -5.308  1.00  0.00    -0.165 F 
HETATM   26  F   UNL     1       4.495   6.359  -5.140  1.00  0.00    -0.165 F 
HETATM   27  F   UNL     1       4.643   4.240  -5.565  1.00  0.00    -0.165 F 
ENDBRANCH  21  24
ENDBRANCH  18  21
ENDBRANCH  15  18
ENDBRANCH   1  15
TORSDOF 10
