REMARK  8 active torsions:
REMARK  status: ('A' for Active; 'I' for Inactive)
REMARK    1  A    between atoms: C_1  and  O_2 
REMARK    2  A    between atoms: C_3  and  C_8 
REMARK    3  A    between atoms: C_7  and  S_21 
REMARK    4  A    between atoms: C_8  and  C_9 
REMARK    5  A    between atoms: C_11  and  O_12 
REMARK    6  A    between atoms: C_13  and  C_18 
REMARK    7  A    between atoms: C_17  and  S_21 
REMARK    8  A    between atoms: C_18  and  C_19 
ROOT
HETATM    1  S   UNL     1       3.093   0.272  -0.262  1.00  0.00     0.206 S 
HETATM    2  O   UNL     1       3.585   1.226   0.710  1.00  0.00    -0.217 OA
HETATM    3  O   UNL     1       3.593  -1.094  -0.280  1.00  0.00    -0.217 OA
ENDROOT
BRANCH   1   4
HETATM    4  C   UNL     1       1.323   0.200  -0.087  1.00  0.00     0.065 A 
HETATM    5  C   UNL     1       0.610   1.386   0.075  1.00  0.00     0.026 A 
HETATM    6  C   UNL     1      -0.780   1.336   0.104  1.00  0.00     0.038 A 
HETATM    7  C   UNL     1      -1.449   0.112  -0.011  1.00  0.00     0.072 A 
HETATM    8  C   UNL     1      -0.752  -1.101  -0.082  1.00  0.00    -0.020 A 
HETATM    9  C   UNL     1       0.658  -1.029  -0.139  1.00  0.00     0.034 A 
BRANCH   7  10
HETATM   10  O   UNL     1      -2.808   0.210  -0.073  1.00  0.00    -0.360 OA
HETATM   11  H   UNL     1      -3.110  -0.436  -0.735  1.00  0.00     0.217 HD
ENDBRANCH   7  10
BRANCH   8  12
HETATM   12  C   UNL     1      -1.323  -2.507  -0.016  1.00  0.00     0.067 C 
BRANCH  12  13
HETATM   13  C   UNL     1      -2.808  -2.720   0.007  1.00  0.00    -0.032 C 
HETATM   14  C   UNL     1      -3.430  -3.677  -0.696  1.00  0.00     0.007 C 
ENDBRANCH  12  13
ENDBRANCH   8  12
ENDBRANCH   1   4
BRANCH   1  15
HETATM   15  C   UNL     1       3.361   0.956  -1.884  1.00  0.00     0.065 A 
HETATM   16  C   UNL     1       3.504   0.113  -2.982  1.00  0.00     0.026 A 
HETATM   17  C   UNL     1       3.624   0.679  -4.248  1.00  0.00     0.038 A 
HETATM   18  C   UNL     1       3.604   2.071  -4.412  1.00  0.00     0.072 A 
HETATM   19  C   UNL     1       3.533   2.940  -3.316  1.00  0.00    -0.020 A 
HETATM   20  C   UNL     1       3.410   2.347  -2.040  1.00  0.00     0.034 A 
BRANCH  18  21
HETATM   21  O   UNL     1       3.635   2.495  -5.707  1.00  0.00    -0.360 OA
HETATM   22  H   UNL     1       2.946   3.178  -5.791  1.00  0.00     0.217 HD
ENDBRANCH  18  21
BRANCH  19  23
HETATM   23  C   UNL     1       3.694   4.450  -3.313  1.00  0.00     0.067 C 
BRANCH  23  24
HETATM   24  C   UNL     1       3.615   5.224  -4.596  1.00  0.00    -0.032 C 
HETATM   25  C   UNL     1       2.913   6.357  -4.739  1.00  0.00     0.007 C 
ENDBRANCH  23  24
ENDBRANCH  19  23
ENDBRANCH   1  15
TORSDOF 8
