REMARK  1 active torsions:
REMARK  status: ('A' for Active; 'I' for Inactive)
REMARK    1  A    between atoms: C_9  and  O_15 
ROOT
HETATM    1  C   UNL     1       0.740  -0.363  -0.000  1.00  0.00    -0.012 A 
HETATM    2  C   UNL     1       1.442   0.876   0.000  1.00  0.00     0.008 A 
HETATM    3  C   UNL     1       1.518  -1.550  -0.001  1.00  0.00     0.013 A 
HETATM    4  C   UNL     1       2.861   0.859   0.001  1.00  0.00     0.015 A 
HETATM    5  C   UNL     1       2.913  -1.538  -0.000  1.00  0.00     0.001 A 
HETATM    6  C   UNL     1       3.586  -0.332   0.001  1.00  0.00     0.001 A 
HETATM    7  C   UNL     1      -0.705  -0.375  -0.000  1.00  0.00    -0.015 A 
HETATM    8  C   UNL     1      -1.408   0.855   0.000  1.00  0.00    -0.022 A 
HETATM    9  C   UNL     1       0.688   2.068   0.001  1.00  0.00     0.077 A 
HETATM   10  C   UNL     1      -0.703   2.056   0.001  1.00  0.00     0.049 A 
HETATM   11  C   UNL     1      -1.500  -1.551  -0.000  1.00  0.00     0.013 A 
HETATM   12  C   UNL     1      -2.899  -1.513   0.000  1.00  0.00     0.001 A 
HETATM   13  C   UNL     1      -2.814   0.883   0.001  1.00  0.00     0.012 A 
HETATM   14  C   UNL     1      -3.557  -0.294   0.000  1.00  0.00     0.001 A 
ENDROOT
BRANCH   9  15
HETATM   15  O   UNL     1       1.235   3.326   0.001  1.00  0.00    -0.360 OA
HETATM   16  H   UNL     1       2.200   3.268  -0.009  1.00  0.00     0.217 HD
ENDBRANCH   9  15
TORSDOF 1
