REMARK  3 active torsions:
REMARK  status: ('A' for Active; 'I' for Inactive)
REMARK    1  A    between atoms: S_1  and  S_2 
REMARK    2  A    between atoms: S_1  and  C_3 
REMARK    3  A    between atoms: S_2  and  C_9 
ROOT
HETATM    1  S   UNL     1       1.084  -0.184   0.522  1.00  0.00    -0.092 SA
ENDROOT
BRANCH   1   2
HETATM    2  S   UNL     1       0.463   1.754   0.788  1.00  0.00    -0.092 SA
BRANCH   2   3
HETATM    3  C   UNL     1      -1.375   1.732   0.557  1.00  0.00     0.058 C 
HETATM    4  C   UNL     1      -1.923   0.780  -0.515  1.00  0.00     0.016 C 
HETATM    5  C   UNL     1      -1.590   1.218  -1.939  1.00  0.00     0.001 C 
HETATM    6  C   UNL     1      -2.059   2.644  -2.206  1.00  0.00     0.000 C 
HETATM    7  C   UNL     1      -1.527   3.624  -1.165  1.00  0.00     0.001 C 
HETATM    8  C   UNL     1      -1.844   3.168   0.263  1.00  0.00     0.016 C 
ENDBRANCH   2   3
ENDBRANCH   1   2
BRANCH   1   9
HETATM    9  C   UNL     1       2.886  -0.051   0.129  1.00  0.00     0.058 C 
HETATM   10  C   UNL     1       3.255   0.973  -0.955  1.00  0.00     0.016 C 
HETATM   11  C   UNL     1       2.836   0.551  -2.361  1.00  0.00     0.001 C 
HETATM   12  C   UNL     1       3.380  -0.828  -2.716  1.00  0.00     0.000 C 
HETATM   13  C   UNL     1       2.995  -1.873  -1.673  1.00  0.00     0.001 C 
HETATM   14  C   UNL     1       3.408  -1.445  -0.263  1.00  0.00     0.016 C 
ENDBRANCH   1   9
TORSDOF 3
