REMARK  10 active torsions:
REMARK  status: ('A' for Active; 'I' for Inactive)
REMARK    1  A    between atoms: C9_2  and  O4_3 
REMARK    2  A    between atoms: C9_2  and  C7_5 
REMARK    3  A    between atoms: C7_5  and  C19_17 
REMARK    4  A    between atoms: C7_5  and  C8_6 
REMARK    5  A    between atoms: C7_5  and  C10_10 
REMARK    6  A    between atoms: C8_6  and  O1_7 
REMARK    7  A    between atoms: C10_10  and  C11_11 
REMARK    8  A    between atoms: C19_17  and  C3_18 
REMARK    9  A    between atoms: C5_23  and  N1_24 
REMARK   10  A    between atoms: N1_24  and  S1_25 
ROOT
HETATM    1  C7  UNK     1       1.523   9.257  42.849  1.00  0.00     0.143 C 
ENDROOT
BRANCH   1   2
HETATM    2  C9  UNK     1       2.071  10.598  42.360  1.00  0.00     0.277 C 
HETATM    3  O3  UNK     1       2.173  10.906  41.178  1.00  0.00    -0.264 OA
BRANCH   2   4
HETATM    4  O4  UNK     1       2.480  11.402  43.381  1.00  0.00    -0.325 OA
HETATM    5  C18 UNK     1       3.284  12.510  42.968  1.00  0.00     0.213 C 
ENDBRANCH   2   4
ENDBRANCH   1   2
BRANCH   1   6
HETATM    6  C19 UNK     1       1.810   8.222  41.717  1.00  0.00     0.069 C 
BRANCH   6   7
HETATM    7  C3  UNK     1       1.517   6.763  41.988  1.00  0.00    -0.056 A 
HETATM    8  C1  UNK     1       0.331   6.178  41.529  1.00  0.00     0.009 A 
HETATM    9  C4  UNK     1       0.037   4.842  41.820  1.00  0.00     0.025 A 
HETATM   10  C5  UNK     1       0.928   4.071  42.572  1.00  0.00     0.025 A 
HETATM   11  C2  UNK     1       2.117   4.640  43.012  1.00  0.00     0.025 A 
HETATM   12  C6  UNK     1       2.422   5.967  42.699  1.00  0.00     0.009 A 
BRANCH  10  13
HETATM   13  N1  UNK     1       0.535   2.759  42.984  1.00  0.00    -0.167 NA
HETATM   14  HN1 UNK     1      -0.406   2.495  42.706  1.00  0.00     0.148 HD
BRANCH  13  15
HETATM   15  S1  UNK     1       1.525   1.435  42.543  1.00  0.00     0.187 S 
HETATM   16  O6  UNK     1       0.782   0.327  43.137  1.00  0.00    -0.582 OA
HETATM   17  O5  UNK     1       1.487   1.478  41.086  1.00  0.00    -0.582 OA
HETATM   18  O7  UNK     1       2.823   1.700  43.151  1.00  0.00    -0.582 OA
ENDBRANCH  13  15
ENDBRANCH  10  13
ENDBRANCH   6   7
ENDBRANCH   1   6
BRANCH   1  19
HETATM   19  C8  UNK     1       0.005   9.319  43.029  1.00  0.00     0.277 C 
HETATM   20  O2  UNK     1      -0.630   8.508  43.693  1.00  0.00    -0.264 OA
BRANCH  19  21
HETATM   21  O1  UNK     1      -0.571  10.327  42.328  1.00  0.00    -0.325 OA
HETATM   22  C17 UNK     1      -2.001  10.405  42.388  1.00  0.00     0.213 C 
ENDBRANCH  19  21
ENDBRANCH   1  19
BRANCH   1  23
HETATM   23  C10 UNK     1       2.104   8.896  44.248  1.00  0.00     0.069 C 
BRANCH  23  24
HETATM   24  C11 UNK     1       3.592   8.707  44.491  1.00  0.00    -0.057 A 
HETATM   25  C13 UNK     1       4.595   8.871  43.529  1.00  0.00     0.007 A 
HETATM   26  C16 UNK     1       5.928   8.572  43.826  1.00  0.00     0.001 A 
HETATM   27  C12 UNK     1       6.285   8.140  45.100  1.00  0.00     0.000 A 
HETATM   28  C15 UNK     1       5.312   8.020  46.085  1.00  0.00     0.001 A 
HETATM   29  C14 UNK     1       3.978   8.301  45.782  1.00  0.00     0.007 A 
ENDBRANCH  23  24
ENDBRANCH   1  23
TORSDOF 10
