REMARK  1 active torsions:
REMARK  status: ('A' for Active; 'I' for Inactive)
REMARK    1  A    between atoms: C7_14  and  C1_16 
ROOT
HETATM    1  O2  UNK     1       3.156  14.514  22.002  1.00  0.00    -0.287 OA
HETATM    2  C9  UNK     1       3.030  15.603  21.457  1.00  0.00     0.187 A 
HETATM    3  C10 UNK     1       1.916  15.904  20.545  1.00  0.00     0.049 A 
HETATM    4  C19 UNK     1       1.839  17.169  19.963  1.00  0.00     0.101 A 
HETATM    5  C18 UNK     1       0.780  17.489  19.082  1.00  0.00     0.009 A 
HETATM    6  C17 UNK     1       0.650  18.752  18.466  1.00  0.00     0.015 A 
HETATM    7  C16 UNK     1      -0.409  19.029  17.599  1.00  0.00     0.001 A 
HETATM    8  C15 UNK     1      -1.360  18.052  17.331  1.00  0.00     0.001 A 
HETATM    9  C14 UNK     1      -1.254  16.796  17.928  1.00  0.00     0.012 A 
HETATM   10  C13 UNK     1      -0.195  16.499  18.802  1.00  0.00    -0.023 A 
HETATM   11  C12 UNK     1      -0.096  15.233  19.401  1.00  0.00     0.013 A 
HETATM   12  C11 UNK     1       0.954  14.934  20.269  1.00  0.00     0.019 A 
HETATM   13  O1  UNK     1       2.779  18.143  20.219  1.00  0.00    -0.308 OA
HETATM   14  C7  UNK     1       3.825  17.861  21.081  1.00  0.00     0.090 A 
HETATM   15  C8  UNK     1       4.003  16.680  21.689  1.00  0.00     0.093 A 
ENDROOT
BRANCH  14  16
HETATM   16  C1  UNK     1       4.773  18.977  21.265  1.00  0.00    -0.002 A 
HETATM   17  C6  UNK     1       5.162  19.754  20.163  1.00  0.00     0.014 A 
HETATM   18  C5  UNK     1       6.049  20.822  20.318  1.00  0.00     0.001 A 
HETATM   19  C4  UNK     1       6.555  21.131  21.578  1.00  0.00     0.000 A 
HETATM   20  C3  UNK     1       6.170  20.377  22.684  1.00  0.00     0.001 A 
HETATM   21  C2  UNK     1       5.283  19.308  22.530  1.00  0.00     0.014 A 
ENDBRANCH  14  16
TORSDOF 1
