REMARK  4 active torsions:
REMARK  status: ('A' for Active; 'I' for Inactive)
REMARK    1  A    between atoms: C1_4  and  N_8 
REMARK    2  A    between atoms: N_8  and  C4_9 
REMARK    3  A    between atoms: C4_9  and  C8_10 
REMARK    4  A    between atoms: C12_25  and  N3_26 
ROOT
HETATM    1  O   UNK     1       3.900  -5.319  16.751  1.00  0.00    -0.265 OA
HETATM    2  C   UNK     1       3.310  -4.677  17.615  1.00  0.00     0.282 C 
HETATM    3  C10 UNK     1       3.679  -4.835  19.077  1.00  0.00     0.106 C 
HETATM    4  C1  UNK     1       3.291  -3.738  19.984  1.00  0.00     0.049 C 
HETATM    5  C2  UNK     1       2.389  -2.846  19.552  1.00  0.00     0.049 C 
HETATM    6  C3  UNK     1       1.832  -3.030  18.208  1.00  0.00     0.123 C 
HETATM    7  N1  UNK     1       2.248  -3.862  17.320  1.00  0.00    -0.222 NA
HETATM    8  C17 UNK     1       4.364  -6.031  19.490  1.00  0.00     0.147 A 
HETATM    9  N6  UNK     1       4.764  -6.951  18.545  1.00  0.00    -0.338 N 
HETATM   10  N5  UNK     1       4.693  -6.464  20.700  1.00  0.00    -0.228 NA
HETATM   11  C18 UNK     1       5.287  -7.701  20.520  1.00  0.00     0.092 A 
HETATM   12  C16 UNK     1       5.333  -8.025  19.173  1.00  0.00     0.065 A 
HETATM   13  C13 UNK     1       5.868  -9.216  18.667  1.00  0.00     0.062 A 
HETATM   14  C19 UNK     1       5.808  -8.609  21.460  1.00  0.00    -0.029 A 
HETATM   15  C21 UNK     1       5.818  -8.352  22.939  1.00  0.00     0.050 C 
HETATM   16  C20 UNK     1       6.355  -9.823  20.969  1.00  0.00     0.039 A 
HETATM   17  C12 UNK     1       6.385 -10.133  19.597  1.00  0.00     0.042 A 
HETATM   18  HN6 UNK     1       4.645  -6.839  17.543  1.00  0.00     0.167 HD
ENDROOT
BRANCH   4  19
HETATM   19  N   UNK     1       3.876  -3.682  21.247  1.00  0.00    -0.383 N 
HETATM   20  H   UNK     1       4.390  -4.541  21.480  1.00  0.00     0.160 HD
BRANCH  19  21
HETATM   21  C4  UNK     1       3.334  -3.006  22.427  1.00  0.00     0.179 C 
BRANCH  21  22
HETATM   22  C8  UNK     1       1.995  -3.554  22.893  1.00  0.00     0.051 A 
HETATM   23  N2  UNK     1       1.119  -2.660  23.428  1.00  0.00    -0.264 NA
HETATM   24  C9  UNK     1      -0.071  -3.133  23.862  1.00  0.00     0.117 A 
HETATM   25  C7  UNK     1      -0.448  -4.462  23.781  1.00  0.00     0.019 A 
HETATM   26  C5  UNK     1       0.454  -5.366  23.239  1.00  0.00     0.003 A 
HETATM   27  C6  UNK     1       1.696  -4.914  22.803  1.00  0.00     0.029 A 
ENDBRANCH  21  22
ENDBRANCH  19  21
ENDBRANCH   4  19
BRANCH  17  28
HETATM   28  N3  UNK     1       6.934 -11.374  19.146  1.00  0.00    -0.315 N 
HETATM   29  C14 UNK     1       7.047 -11.817  17.843  1.00  0.00     0.214 A 
HETATM   30  N4  UNK     1       7.588 -13.013  17.753  1.00  0.00    -0.254 NA
HETATM   31  C15 UNK     1       7.848 -13.379  19.040  1.00  0.00     0.135 A 
HETATM   32  C11 UNK     1       7.460 -12.392  19.916  1.00  0.00     0.117 A 
ENDBRANCH  17  28
TORSDOF 4
