REMARK  1 active torsions:
REMARK  status: ('A' for Active; 'I' for Inactive)
REMARK    1  A    between atoms: C6_6  and  C4_8 
ROOT
HETATM    1 CL   UNK     1      26.794  14.269  28.968  1.00  0.00    -0.084 Cl
HETATM    2  C9  UNK     1      25.593  14.063  27.754  1.00  0.00     0.034 A 
HETATM    3  C10 UNK     1      25.016  15.177  27.153  1.00  0.00     0.024 A 
HETATM    4  C8  UNK     1      25.202  12.780  27.377  1.00  0.00     0.024 A 
HETATM    5  C7  UNK     1      24.225  12.610  26.390  1.00  0.00     0.015 A 
HETATM    6  C6  UNK     1      23.631  13.720  25.771  1.00  0.00    -0.006 A 
HETATM    7  C11 UNK     1      24.040  15.004  26.166  1.00  0.00     0.015 A 
ENDROOT
BRANCH   6   8
HETATM    8  C4  UNK     1      22.612  13.583  24.740  1.00  0.00     0.083 A 
HETATM    9  C2  UNK     1      22.113  12.409  24.215  1.00  0.00     0.121 A 
HETATM   10  N1  UNK     1      21.185  12.794  23.285  1.00  0.00    -0.358 N 
HETATM   11  C5  UNK     1      21.151  14.158  23.275  1.00  0.00     0.207 A 
HETATM   12  H1  UNK     1      20.624  12.184  22.706  1.00  0.00     0.166 HD
HETATM   13  N3  UNK     1      21.999  14.663  24.140  1.00  0.00    -0.242 NA
ENDBRANCH   6   8
TORSDOF 1
