REMARK  1 active torsions:
REMARK  status: ('A' for Active; 'I' for Inactive)
REMARK    1  A    between atoms: C12_22  and  C3_23 
ROOT
HETATM    1  O50 UNK     1      41.135   8.791  19.877  1.00  0.00    -0.268 OA
HETATM    2  C32 UNK     1      40.108   8.164  20.095  1.00  0.00     0.254 C 
HETATM    3  N33 UNK     1      39.590   8.064  21.375  1.00  0.00    -0.356 N 
HETATM    4  C35 UNK     1      38.191   7.764  21.628  1.00  0.00     0.142 C 
HETATM    5  C38 UNK     1      37.786   6.523  20.825  1.00  0.00     0.067 C 
HETATM    6  C43 UNK     1      36.343   6.015  21.053  1.00  0.00     0.253 C 
HETATM    7  N42 UNK     1      36.860   4.654  21.290  1.00  0.00    -0.072 N 
HETATM    8  C46 UNK     1      36.311   4.061  22.533  1.00  0.00     0.269 C 
HETATM    9  C39 UNK     1      38.222   5.189  21.501  1.00  0.00     0.253 C 
HETATM   10  C23 UNK     1      38.262   6.634  19.367  1.00  0.00     0.040 A 
HETATM   11  N21 UNK     1      37.806   6.056  18.212  1.00  0.00    -0.357 N 
HETATM   12  C24 UNK     1      39.360   7.431  19.082  1.00  0.00     0.064 A 
HETATM   13  C25 UNK     1      39.566   7.325  17.685  1.00  0.00    -0.013 A 
HETATM   14  C26 UNK     1      40.583   7.966  16.795  1.00  0.00     0.047 C 
HETATM   15  C29 UNK     1      40.829   7.117  15.528  1.00  0.00     0.045 C 
HETATM   16  C16 UNK     1      39.574   6.499  14.940  1.00  0.00    -0.028 A 
HETATM   17  C14 UNK     1      39.499   6.179  13.594  1.00  0.00     0.125 A 
HETATM   18  N13 UNK     1      38.434   5.575  13.027  1.00  0.00    -0.260 NA
HETATM   19  C20 UNK     1      38.588   6.488  17.172  1.00  0.00     0.051 A 
HETATM   20  C17 UNK     1      38.483   6.144  15.757  1.00  0.00     0.001 A 
HETATM   21  C18 UNK     1      37.374   5.521  15.190  1.00  0.00     0.046 A 
HETATM   22  C12 UNK     1      37.388   5.250  13.822  1.00  0.00     0.070 A 
HETATM   23  H33 UNK     1      40.079   8.692  22.008  1.00  0.00     0.162 HD
HETATM   24  H42 UNK     1      36.800   4.023  20.480  1.00  0.00     0.279 HD
HETATM   25  H21 UNK     1      37.020   5.431  18.101  1.00  0.00     0.166 HD
ENDROOT
BRANCH  22  26
HETATM   26  C3  UNK     1      36.254   4.612  13.148  1.00  0.00     0.031 A 
HETATM   27  C4  UNK     1      34.986   5.220  13.124  1.00  0.00     0.017 A 
HETATM   28  C6  UNK     1      33.909   4.612  12.471  1.00  0.00     0.001 A 
HETATM   29  C8  UNK     1      34.081   3.388  11.829  1.00  0.00     0.003 A 
HETATM   30  C10 UNK     1      35.329   2.769  11.842  1.00  0.00     0.043 A 
HETATM   31  C2  UNK     1      36.399   3.379  12.497  1.00  0.00     0.129 A 
HETATM   32  F1  UNK     1      37.575   2.733  12.520  1.00  0.00    -0.205 F 
ENDBRANCH  22  26
TORSDOF 1
