REMARK  10 active torsions:
REMARK  status: ('A' for Active; 'I' for Inactive)
REMARK    1  A    between atoms: C1_2  and  C4_6 
REMARK    2  A    between atoms: C1_2  and  O2_3 
REMARK    3  A    between atoms: O2_3  and  C2_4 
REMARK    4  A    between atoms: C12_10  and  O4_16 
REMARK    5  A    between atoms: O4_16  and  C13_17 
REMARK    6  A    between atoms: C13_17  and  C14_18 
REMARK    7  A    between atoms: C14_18  and  O5_19 
REMARK    8  A    between atoms: C14_18  and  C15_20 
REMARK    9  A    between atoms: C15_20  and  N1_21 
REMARK   10  A    between atoms: N1_21  and  C16_22 
ROOT
HETATM    1  C4  UNK     1       3.393   0.798  52.248  1.00  0.00     0.158 A 
HETATM    2  C5  UNK     1       3.388   2.065  51.669  1.00  0.00    -0.006 A 
HETATM    3  C6  UNK     1       3.328   3.347  52.415  1.00  0.00     0.052 C 
HETATM    4  C7  UNK     1       3.477   1.862  50.249  1.00  0.00     0.040 A 
HETATM    5  C12 UNK     1       3.550   2.686  49.097  1.00  0.00     0.082 A 
HETATM    6  C11 UNK     1       3.578   2.052  47.840  1.00  0.00     0.038 A 
HETATM    7  C10 UNK     1       3.585   0.658  47.720  1.00  0.00     0.006 A 
HETATM    8  C9  UNK     1       3.547  -0.162  48.845  1.00  0.00     0.038 A 
HETATM    9  C8  UNK     1       3.489   0.482  50.075  1.00  0.00     0.090 A 
HETATM   10  O3  UNK     1       3.443  -0.154  51.271  1.00  0.00    -0.303 OA
ENDROOT
BRANCH   5  11
HETATM   11  O4  UNK     1       3.523   4.046  49.274  1.00  0.00    -0.348 OA
BRANCH  11  12
HETATM   12  C13 UNK     1       4.184   4.876  48.320  1.00  0.00     0.209 C 
BRANCH  12  13
HETATM   13  C14 UNK     1       5.537   5.334  48.874  1.00  0.00     0.168 C 
BRANCH  13  14
HETATM   14  O5  UNK     1       6.271   6.114  47.916  1.00  0.00    -0.392 OA
HETATM   15  H5  UNK     1       6.302   5.612  47.076  1.00  0.00     0.210 HD
ENDBRANCH  13  14
BRANCH  13  16
HETATM   16  C15 UNK     1       5.365   6.214  50.124  1.00  0.00     0.266 C 
BRANCH  16  17
HETATM   17  N1  UNK     1       6.714   6.816  50.444  1.00  0.00    -0.069 N 
HETATM   18  H12 UNK     1       7.053   7.234  49.558  1.00  0.00     0.277 HD
HETATM   19  H13 UNK     1       7.368   6.044  50.627  1.00  0.00     0.277 HD
BRANCH  17  20
HETATM   20  C16 UNK     1       6.770   7.800  51.571  1.00  0.00     0.178 C 
HETATM   21  C18 UNK     1       6.103   9.108  51.165  1.00  0.00     0.039 C 
HETATM   22  C17 UNK     1       8.236   8.028  51.928  1.00  0.00     0.039 C 
ENDBRANCH  17  20
ENDBRANCH  16  17
ENDBRANCH  13  16
ENDBRANCH  12  13
ENDBRANCH  11  12
ENDBRANCH   5  11
BRANCH   1  23
HETATM   23  C1  UNK     1       3.393   0.395  53.639  1.00  0.00     0.317 C 
HETATM   24  O1  UNK     1       3.304   1.159  54.592  1.00  0.00    -0.257 OA
BRANCH  23  25
HETATM   25  O2  UNK     1       3.587  -0.950  53.740  1.00  0.00    -0.316 OA
BRANCH  25  26
HETATM   26  C2  UNK     1       3.814  -1.423  55.072  1.00  0.00     0.175 C 
HETATM   27  C3  UNK     1       4.321  -2.849  54.981  1.00  0.00     0.034 C 
ENDBRANCH  25  26
ENDBRANCH  23  25
ENDBRANCH   1  23
TORSDOF 10
