REMARK  15 active torsions:
REMARK  status: ('A' for Active; 'I' for Inactive)
REMARK    1  A    between atoms: PB_2  and  O3A_14 
REMARK    2  A    between atoms: PB_2  and  O5D_4 
REMARK    3  A    between atoms: O5D_4  and  C5D_5 
REMARK    4  A    between atoms: C5D_5  and  C4D_6 
REMARK    5  A    between atoms: C3D_7  and  O3D_8 
REMARK    6  A    between atoms: C2D_9  and  O2D_10 
REMARK    7  A    between atoms: C1D_12  and  O1D_13 
REMARK    8  A    between atoms: O3A_14  and  PA_15 
REMARK    9  A    between atoms: PA_15  and  O5'_18 
REMARK   10  A    between atoms: O5'_18  and  C5'_19 
REMARK   11  A    between atoms: C5'_19  and  C4'_20 
REMARK   12  A    between atoms: C3'_21  and  O3'_22 
REMARK   13  A    between atoms: C2'_23  and  O2'_24 
REMARK   14  A    between atoms: C1'_26  and  N9_27 
REMARK   15  A    between atoms: C6_34  and  N6_36 
ROOT
HETATM    1  C5' UNK     1      14.233  23.466  -2.163  1.00  0.00     0.216 C 
ENDROOT
BRANCH   1   2
HETATM    2  O5' UNK     1      14.528  24.827  -1.942  1.00  0.00    -0.287 OA
BRANCH   2   3
HETATM    3  PA  UNK     1      15.283  25.684  -3.089  1.00  0.00     0.417 P 
HETATM    4  O1A UNK     1      14.939  27.137  -2.852  1.00  0.00    -0.624 OA
HETATM    5  O2A UNK     1      14.959  25.107  -4.455  1.00  0.00    -0.624 OA
BRANCH   3   6
HETATM    6  O3A UNK     1      16.828  25.481  -2.744  1.00  0.00    -0.180 OA
BRANCH   6   7
HETATM    7  PB  UNK     1      17.739  24.308  -2.172  1.00  0.00     0.417 P 
HETATM    8  O2B UNK     1      17.325  22.940  -2.664  1.00  0.00    -0.624 OA
HETATM    9  O1B UNK     1      17.939  24.482  -0.680  1.00  0.00    -0.624 OA
BRANCH   7  10
HETATM   10  O5D UNK     1      19.160  24.638  -2.907  1.00  0.00    -0.287 OA
BRANCH  10  11
HETATM   11  C5D UNK     1      19.245  25.208  -4.213  1.00  0.00     0.216 C 
BRANCH  11  12
HETATM   12  C4D UNK     1      18.905  24.310  -5.420  1.00  0.00     0.180 C 
HETATM   13  C3D UNK     1      17.426  23.971  -5.543  1.00  0.00     0.182 C 
HETATM   14  C2D UNK     1      17.414  22.553  -6.061  1.00  0.00     0.204 C 
HETATM   15  C1D UNK     1      18.683  22.011  -5.398  1.00  0.00     0.288 C 
HETATM   16  O4D UNK     1      19.651  23.071  -5.396  1.00  0.00    -0.349 OA
BRANCH  13  17
HETATM   17  O3D UNK     1      16.697  24.855  -6.405  1.00  0.00    -0.390 OA
HETATM   18 DHO3 UNK     1      15.902  25.094  -5.844  1.00  0.00     0.210 HD
ENDBRANCH  13  17
BRANCH  14  19
HETATM   19  O2D UNK     1      17.447  22.582  -7.503  1.00  0.00    -0.388 OA
HETATM   20 DHO2 UNK     1      16.920  23.382  -7.711  1.00  0.00     0.210 HD
ENDBRANCH  14  19
BRANCH  15  21
HETATM   21  O1D UNK     1      19.212  20.869  -6.056  1.00  0.00    -0.369 OA
HETATM   22 DHO1 UNK     1      19.795  20.480  -5.387  1.00  0.00     0.212 HD
ENDBRANCH  15  21
ENDBRANCH  11  12
ENDBRANCH  10  11
ENDBRANCH   7  10
ENDBRANCH   6   7
ENDBRANCH   3   6
ENDBRANCH   2   3
ENDBRANCH   1   2
BRANCH   1  23
HETATM   23  C4' UNK     1      13.431  22.936  -0.972  1.00  0.00     0.180 C 
HETATM   24  O4' UNK     1      13.263  21.495  -1.078  1.00  0.00    -0.353 OA
HETATM   25  C1' UNK     1      14.119  20.875  -0.081  1.00  0.00     0.262 C 
HETATM   26  C2' UNK     1      15.039  21.968   0.476  1.00  0.00     0.198 C 
HETATM   27  C3' UNK     1      14.133  23.184   0.359  1.00  0.00     0.182 C 
BRANCH  25  28
HETATM   28  N9  UNK     1      14.814  19.754  -0.690  1.00  0.00    -0.294 N 
HETATM   29  C4  UNK     1      15.156  18.577  -0.075  1.00  0.00     0.166 A 
HETATM   30  C5  UNK     1      15.731  17.808  -1.073  1.00  0.00     0.144 A 
HETATM   31  N3  UNK     1      14.995  18.229   1.216  1.00  0.00    -0.222 NA
HETATM   32  N7  UNK     1      15.744  18.480  -2.273  1.00  0.00    -0.236 NA
HETATM   33  C6  UNK     1      16.200  16.537  -0.708  1.00  0.00     0.135 A 
HETATM   34  C8  UNK     1      15.205  19.653  -2.002  1.00  0.00     0.214 A 
HETATM   35  N1  UNK     1      16.092  16.148   0.582  1.00  0.00    -0.228 NA
HETATM   36  C2  UNK     1      15.502  17.002   1.450  1.00  0.00     0.237 A 
BRANCH  33  37
HETATM   37  N6  UNK     1      16.806  15.671  -1.619  1.00  0.00    -0.285 NA
HETATM   38  H62 UNK     1      17.488  15.089  -1.155  1.00  0.00     0.125 HD
HETATM   39  H61 UNK     1      17.126  16.185  -2.438  1.00  0.00     0.125 HD
ENDBRANCH  33  37
ENDBRANCH  25  28
BRANCH  26  40
HETATM   40  O2' UNK     1      15.427  21.781   1.843  1.00  0.00    -0.388 OA
HETATM   41 'HO2 UNK     1      16.187  22.386   1.967  1.00  0.00     0.210 HD
ENDBRANCH  26  40
BRANCH  27  42
HETATM   42  O3' UNK     1      13.166  23.149   1.430  1.00  0.00    -0.390 OA
HETATM   43 'HO3 UNK     1      13.694  22.995   2.236  1.00  0.00     0.210 HD
ENDBRANCH  27  42
ENDBRANCH   1  23
TORSDOF 15
