REMARK  13 active torsions:
REMARK  status: ('A' for Active; 'I' for Inactive)
REMARK    1  A    between atoms: C17_7  and  C16_8 
REMARK       I    between atoms: C16_8  and  N4_10 
REMARK    2  A    between atoms: N4_10  and  C15_11 
REMARK    3  A    between atoms: C15_11  and  C14_12 
REMARK    4  A    between atoms: C14_12  and  C13_13 
REMARK    5  A    between atoms: C13_13  and  C11_14 
REMARK    6  A    between atoms: C11_14  and  C12_15 
REMARK    7  A    between atoms: C11_14  and  N2_18 
REMARK       I    between atoms: C12_15  and  N3_16 
REMARK       I    between atoms: N2_18  and  C10_19 
REMARK    8  A    between atoms: C10_19  and  C9_21 
REMARK    9  A    between atoms: C9_21  and  N1_22 
REMARK   10  A    between atoms: C9_21  and  C8_26 
REMARK       I    between atoms: N1_22  and  C23_23 
REMARK   11  A    between atoms: C8_26  and  C5_27 
REMARK   12  A    between atoms: C2_30  and  C1_33 
REMARK   13  A    between atoms: C1_33  and  P1_36 
ROOT
HETATM    1  N2  UNK     1      16.396  -1.885  -3.920  1.00  0.00    -0.346 N 
HETATM    2  C10 UNK     1      17.413  -1.658  -3.014  1.00  0.00     0.241 C 
HETATM    3  O4  UNK     1      17.947  -2.549  -2.357  1.00  0.00    -0.271 OA
HETATM    4  H2  UNK     1      16.135  -1.153  -4.569  1.00  0.00     0.163 HD
ENDROOT
BRANCH   1   5
HETATM    5  C11 UNK     1      15.817  -3.208  -4.168  1.00  0.00     0.176 C 
BRANCH   5   6
HETATM    6  C13 UNK     1      14.333  -3.237  -3.759  1.00  0.00     0.036 C 
BRANCH   6   7
HETATM    7  C14 UNK     1      13.449  -2.256  -4.551  1.00  0.00     0.022 C 
BRANCH   7   8
HETATM    8  C15 UNK     1      11.990  -2.256  -4.094  1.00  0.00     0.123 C 
BRANCH   8   9
HETATM    9  N4  UNK     1      11.324  -3.509  -4.383  1.00  0.00    -0.357 N 
HETATM   10  C16 UNK     1      11.201  -4.510  -3.443  1.00  0.00     0.251 C 
HETATM   11  O6  UNK     1      11.535  -4.383  -2.270  1.00  0.00    -0.268 OA
HETATM   12  HN4 UNK     1      10.995  -3.647  -5.328  1.00  0.00     0.162 HD
BRANCH  10  13
HETATM   13  C17 UNK     1      10.592  -5.788  -3.905  1.00  0.00     0.033 A 
HETATM   14  C18 UNK     1       9.951  -6.591  -2.950  1.00  0.00     0.017 A 
HETATM   15  C19 UNK     1       9.343  -7.789  -3.329  1.00  0.00     0.002 A 
HETATM   16  C20 UNK     1       9.378  -8.194  -4.662  1.00  0.00     0.018 A 
HETATM   17  C21 UNK     1      10.036  -7.408  -5.609  1.00  0.00     0.007 A 
HETATM   18  I   UNK     1      10.094  -8.027  -7.594  1.00  0.00    -0.045 I 
HETATM   19  C22 UNK     1      10.654  -6.212  -5.238  1.00  0.00     0.035 A 
ENDBRANCH  10  13
ENDBRANCH   8   9
ENDBRANCH   7   8
ENDBRANCH   6   7
ENDBRANCH   5   6
BRANCH   5  20
HETATM   20  C12 UNK     1      15.999  -3.674  -5.631  1.00  0.00     0.238 C 
HETATM   21  N3  UNK     1      17.088  -3.179  -6.283  1.00  0.00    -0.368 N 
HETATM   22 1HN3 UNK     1      17.623  -2.397  -5.929  1.00  0.00     0.159 HD
HETATM   23 2HN3 UNK     1      17.172  -3.345  -7.283  1.00  0.00     0.159 HD
HETATM   24  O5  UNK     1      15.288  -4.534  -6.147  1.00  0.00    -0.271 OA
ENDBRANCH   5  20
ENDBRANCH   1   5
BRANCH   2  25
HETATM   25  C9  UNK     1      17.791  -0.168  -2.852  1.00  0.00     0.181 C 
BRANCH  25  26
HETATM   26  N1  UNK     1      17.864   0.110  -1.417  1.00  0.00    -0.345 N 
HETATM   27  H1  UNK     1      18.673  -0.253  -0.925  1.00  0.00     0.163 HD
HETATM   28  C23 UNK     1      16.855   0.444  -0.573  1.00  0.00     0.232 C 
HETATM   29  C24 UNK     1      15.528   0.711  -1.128  1.00  0.00     0.090 C 
HETATM   30  O7  UNK     1      17.034   0.534   0.639  1.00  0.00    -0.270 OA
ENDBRANCH  25  26
BRANCH  25  31
HETATM   31  C8  UNK     1      19.122   0.150  -3.557  1.00  0.00     0.073 C 
BRANCH  31  32
HETATM   32  C5  UNK     1      19.081  -0.042  -5.054  1.00  0.00    -0.056 C 
HETATM   33  C4  UNK     1      17.986   0.380  -5.819  1.00  0.00     0.008 C 
HETATM   34  C3  UNK     1      17.896   0.049  -7.169  1.00  0.00     0.014 C 
HETATM   35  C2  UNK     1      18.929  -0.647  -7.804  1.00  0.00     0.027 C 
HETATM   36  C7  UNK     1      20.079  -0.959  -7.071  1.00  0.00     0.014 C 
HETATM   37  C6  UNK     1      20.156  -0.660  -5.708  1.00  0.00     0.008 C 
BRANCH  35  38
HETATM   38  C1  UNK     1      18.753  -1.142  -9.226  1.00  0.00     0.380 C 
HETATM   39  F2  UNK     1      19.894  -1.657  -9.781  1.00  0.00    -0.185 F 
HETATM   40  F1  UNK     1      17.815  -2.143  -9.295  1.00  0.00    -0.185 F 
BRANCH  38  41
HETATM   41  P1  UNK     1      18.132   0.131 -10.580  1.00  0.00     0.339 P 
HETATM   42  O1  UNK     1      18.068  -0.651 -11.896  1.00  0.00    -0.635 OA
HETATM   43  O2  UNK     1      19.189   1.244 -10.562  1.00  0.00    -0.635 OA
HETATM   44  O3  UNK     1      16.757   0.597 -10.074  1.00  0.00    -0.635 OA
ENDBRANCH  38  41
ENDBRANCH  35  38
ENDBRANCH  31  32
ENDBRANCH  25  31
ENDBRANCH   2  25
TORSDOF 13
