REMARK  5 active torsions:
REMARK  status: ('A' for Active; 'I' for Inactive)
REMARK    1  A    between atoms: C4_6  and  O3_9 
REMARK    2  A    between atoms: O3_9  and  C20_10 
REMARK    3  A    between atoms: C20_10  and  C19_11 
REMARK    4  A    between atoms: C17_15  and  O2_16 
REMARK    5  A    between atoms: C15_18  and  C14_19 
ROOT
HETATM    1  C19 UNK     1       2.133   3.032  16.165  1.00  0.00     0.059 A 
HETATM    2  C16 UNK     1       2.537   3.722  17.305  1.00  0.00     0.046 A 
HETATM    3  N1  UNK     1       2.480   1.742  15.942  1.00  0.00    -0.260 NA
HETATM    4  C18 UNK     1       3.244   1.133  16.877  1.00  0.00     0.154 A 
HETATM    5  C17 UNK     1       3.717   1.745  18.034  1.00  0.00     0.098 A 
HETATM    6  C15 UNK     1       3.342   3.082  18.260  1.00  0.00     0.027 A 
ENDROOT
BRANCH   6   7
HETATM    7  C14 UNK     1       3.781   3.843  19.443  1.00  0.00     0.046 A 
HETATM    8  N3  UNK     1       4.062   3.242  20.657  1.00  0.00    -0.358 N 
HETATM    9  HN3 UNK     1       4.010   2.242  20.812  1.00  0.00     0.166 HD
HETATM   10  C13 UNK     1       4.430   4.186  21.567  1.00  0.00     0.027 A 
HETATM   11  C9  UNK     1       4.409   5.424  20.958  1.00  0.00     0.056 A 
HETATM   12  C12 UNK     1       4.788   3.959  22.990  1.00  0.00     0.078 C 
HETATM   13  C8  UNK     1       3.993   5.206  19.621  1.00  0.00     0.049 A 
HETATM   14  C10 UNK     1       4.764   6.641  21.673  1.00  0.00     0.253 C 
HETATM   15  N2  UNK     1       5.207   6.439  22.971  1.00  0.00    -0.356 N 
HETATM   16  O1  UNK     1       4.680   7.765  21.192  1.00  0.00    -0.268 OA
HETATM   17  C11 UNK     1       5.669   5.137  23.451  1.00  0.00     0.129 C 
HETATM   18  HN2 UNK     1       5.553   7.282  23.410  1.00  0.00     0.162 HD
ENDBRANCH   6   7
BRANCH   5  19
HETATM   19  O2  UNK     1       4.503   1.116  18.967  1.00  0.00    -0.354 OA
HETATM   20  C7  UNK     1       5.270   0.012  18.494  1.00  0.00     0.210 C 
ENDBRANCH   5  19
BRANCH   1  21
HETATM   21  C20 UNK     1       1.365   3.730  15.067  1.00  0.00     0.234 C 
BRANCH  21  22
HETATM   22  O3  UNK     1       0.126   4.265  15.543  1.00  0.00    -0.345 OA
BRANCH  22  23
HETATM   23  C4  UNK     1      -0.664   4.868  14.598  1.00  0.00     0.072 A 
HETATM   24  C5  UNK     1      -0.331   5.043  13.252  1.00  0.00     0.082 A 
HETATM   25  C6  UNK     1      -1.227   5.675  12.395  1.00  0.00     0.157 A 
HETATM   26  F2  UNK     1      -0.894   5.836  11.106  1.00  0.00    -0.203 F 
HETATM   27  C1  UNK     1      -2.450   6.136  12.862  1.00  0.00     0.154 A 
HETATM   28  F1  UNK     1      -3.305   6.744  12.029  1.00  0.00    -0.203 F 
HETATM   29  C2  UNK     1      -2.795   5.969  14.197  1.00  0.00     0.048 A 
HETATM   30  C3  UNK     1      -1.900   5.335  15.064  1.00  0.00     0.040 A 
ENDBRANCH  22  23
ENDBRANCH  21  22
ENDBRANCH   1  21
TORSDOF 5
