REMARK  1 active torsions:
REMARK  status: ('A' for Active; 'I' for Inactive)
REMARK    1  A    between atoms: C7_14  and  C1_16 
ROOT
HETATM    1  O2  UNK     1     -17.434  33.195 -30.277  1.00  0.00    -0.292 OA
HETATM    2  C9  UNK     1     -17.389  34.317 -29.778  1.00  0.00     0.168 C 
HETATM    3  C10 UNK     1     -16.339  34.659 -28.805  1.00  0.00     0.045 A 
HETATM    4  C19 UNK     1     -16.219  35.974 -28.359  1.00  0.00     0.100 A 
HETATM    5  C18 UNK     1     -15.265  36.308 -27.368  1.00  0.00     0.009 A 
HETATM    6  C17 UNK     1     -15.113  37.616 -26.859  1.00  0.00     0.015 A 
HETATM    7  C16 UNK     1     -14.170  37.906 -25.871  1.00  0.00     0.001 A 
HETATM    8  C15 UNK     1     -13.355  36.897 -25.374  1.00  0.00     0.001 A 
HETATM    9  C14 UNK     1     -13.480  35.597 -25.863  1.00  0.00     0.012 A 
HETATM   10  C13 UNK     1     -14.426  35.288 -26.855  1.00  0.00    -0.023 A 
HETATM   11  C12 UNK     1     -14.547  33.976 -27.339  1.00  0.00     0.013 A 
HETATM   12  C11 UNK     1     -15.499  33.661 -28.308  1.00  0.00     0.019 A 
HETATM   13  O1  UNK     1     -16.988  36.998 -28.860  1.00  0.00    -0.312 OA
HETATM   14  C7  UNK     1     -17.940  36.733 -29.825  1.00  0.00     0.071 C 
HETATM   15  C8  UNK     1     -18.452  35.352 -30.037  1.00  0.00     0.149 C 
ENDROOT
BRANCH  14  16
HETATM   16  C1  UNK     1     -18.626  37.910 -30.372  1.00  0.00    -0.006 A 
HETATM   17  C6  UNK     1     -20.004  37.910 -30.625  1.00  0.00     0.014 A 
HETATM   18  C5  UNK     1     -20.635  39.046 -31.139  1.00  0.00     0.001 A 
HETATM   19  C4  UNK     1     -19.894  40.191 -31.420  1.00  0.00     0.000 A 
HETATM   20  C3  UNK     1     -18.522  40.204 -31.181  1.00  0.00     0.001 A 
HETATM   21  C2  UNK     1     -17.893  39.073 -30.655  1.00  0.00     0.014 A 
ENDBRANCH  14  16
TORSDOF 1
