REMARK  4 active torsions:
REMARK  status: ('A' for Active; 'I' for Inactive)
REMARK    1  A    between atoms: CAB_1  and  OAA_24 
REMARK    2  A    between atoms: CAP_13  and  OAQ_26 
REMARK    3  A    between atoms: NAS_23  and  CBB_28 
REMARK    4  A    between atoms: CBB_28  and  CBC_29 
ROOT
HETATM    1  CAB UNK     1      -6.292 -65.531  71.260  1.00  0.00     0.099 A 
HETATM    2  CAC UNK     1      -6.791 -66.771  70.933  1.00  0.00     0.110 A 
HETATM    3  CAE UNK     1      -7.608 -68.517  69.787  1.00  0.00     0.195 C 
HETATM    4  CAF UNK     1      -6.687 -68.822  68.653  1.00  0.00     0.048 A 
HETATM    5  CAG UNK     1      -5.521 -69.560  68.693  1.00  0.00    -0.017 A 
HETATM    6  CAH UNK     1      -4.990 -69.589  67.373  1.00  0.00    -0.001 A 
HETATM    7  CAI UNK     1      -3.847 -70.166  66.783  1.00  0.00     0.014 A 
HETATM    8  CAJ UNK     1      -3.615 -69.983  65.414  1.00  0.00     0.001 A 
HETATM    9  CAK UNK     1      -4.496 -69.235  64.637  1.00  0.00     0.002 A 
HETATM   10  CAL UNK     1      -5.633 -68.648  65.200  1.00  0.00     0.030 A 
HETATM   11  CAM UNK     1      -5.854 -68.842  66.568  1.00  0.00     0.043 A 
HETATM   12  CAO UNK     1      -4.967 -70.144  69.951  1.00  0.00     0.083 C 
HETATM   13  CAP UNK     1      -6.074 -70.289  71.030  1.00  0.00     0.105 C 
HETATM   14  CAR UNK     1      -5.471 -70.443  72.465  1.00  0.00     0.228 C 
HETATM   15  CAT UNK     1      -7.759 -69.861  73.472  1.00  0.00     0.236 C 
HETATM   16  CAU UNK     1      -8.229 -69.421  72.086  1.00  0.00     0.048 C 
HETATM   17  CAV UNK     1      -7.069 -69.103  71.116  1.00  0.00     0.057 C 
HETATM   18  CAW UNK     1      -6.345 -67.896  71.600  1.00  0.00    -0.001 A 
HETATM   19  CAX UNK     1      -5.317 -67.873  72.524  1.00  0.00    -0.046 A 
HETATM   20  CAY UNK     1      -4.799 -66.620  72.858  1.00  0.00     0.011 A 
HETATM   21  CAZ UNK     1      -5.299 -65.451  72.241  1.00  0.00     0.040 A 
HETATM   22  NAN UNK     1      -6.867 -68.370  67.374  1.00  0.00    -0.356 N 
HETATM   23  NAS UNK     1      -6.660 -70.884  73.366  1.00  0.00    -0.063 N 
HETATM   24  OAD UNK     1      -7.687 -67.071  69.936  1.00  0.00    -0.335 OA
HETATM   25  CBA UNK     1      -4.749 -69.176  73.018  1.00  0.00     0.075 C 
HETATM   26  HAS UNK     1      -7.068 -71.669  72.824  1.00  0.00     0.280 HD
HETATM   27  HAN UNK     1      -7.610 -67.757  67.063  1.00  0.00     0.166 HD
ENDROOT
BRANCH  23  28
HETATM   28  CBB UNK     1      -6.228 -71.482  74.681  1.00  0.00     0.240 C 
BRANCH  28  29
HETATM   29  CBC UNK     1      -7.332 -72.085  75.489  1.00  0.00     0.011 A 
HETATM   30  CBD UNK     1      -8.019 -73.356  75.060  1.00  0.00     0.007 A 
HETATM   31  CBE UNK     1      -7.110 -73.363  76.258  1.00  0.00     0.007 A 
ENDBRANCH  28  29
ENDBRANCH  23  28
BRANCH  13  32
HETATM   32  OAQ UNK     1      -6.816 -71.514  70.783  1.00  0.00    -0.386 OA
HETATM   33  HAQ UNK     1      -6.965 -71.577  69.814  1.00  0.00     0.210 HD
ENDBRANCH  13  32
BRANCH   1  34
HETATM   34  OAA UNK     1      -6.754 -64.427  70.616  1.00  0.00    -0.358 OA
HETATM   35  HAA UNK     1      -6.252 -63.648  70.907  1.00  0.00     0.217 HD
ENDBRANCH   1  34
TORSDOF 4
