REMARK  6 active torsions:
REMARK  status: ('A' for Active; 'I' for Inactive)
REMARK    1  A    between atoms: C2_2  and  C23_23 
REMARK    2  A    between atoms: C2_2  and  O27_27 
REMARK    3  A    between atoms: C2_2  and  C3_3 
REMARK       I    between atoms: C3_3  and  N5_5 
REMARK    4  A    between atoms: N5_5  and  C6_6 
REMARK    5  A    between atoms: C9_9  and  S13_13 
REMARK    6  A    between atoms: S13_13  and  C16_16 
ROOT
HETATM    1  C6  UNK     1     -62.222 -43.209 -22.117  1.00  0.00     0.056 A 
HETATM    2  C7  UNK     1     -62.700 -44.255 -22.913  1.00  0.00     0.033 A 
HETATM    3  C8  UNK     1     -61.856 -45.302 -23.296  1.00  0.00     0.026 A 
HETATM    4  C9  UNK     1     -60.516 -45.295 -22.904  1.00  0.00     0.066 A 
HETATM    5  C10 UNK     1     -60.008 -44.237 -22.145  1.00  0.00     0.050 A 
HETATM    6  C11 UNK     1     -60.858 -43.196 -21.768  1.00  0.00     0.062 A 
HETATM    7 CL1  UNK     1     -60.192 -41.908 -20.822  1.00  0.00    -0.082 Cl
ENDROOT
BRANCH   1   8
HETATM    8  N5  UNK     1     -63.060 -42.173 -21.646  1.00  0.00    -0.323 N 
HETATM    9  C3  UNK     1     -64.446 -42.131 -21.657  1.00  0.00     0.265 C 
HETATM   10  O4  UNK     1     -65.192 -43.015 -22.064  1.00  0.00    -0.269 OA
HETATM   11  H5  UNK     1     -62.612 -41.447 -21.083  1.00  0.00     0.169 HD
BRANCH   9  12
HETATM   12  C2  UNK     1     -64.993 -40.821 -21.085  1.00  0.00     0.233 C 
HETATM   13  C1  UNK     1     -66.053 -41.109 -20.023  1.00  0.00     0.066 C 
BRANCH  12  14
HETATM   14  C23 UNK     1     -65.575 -40.041 -22.276  1.00  0.00     0.427 C 
HETATM   15  F25 UNK     1     -66.922 -40.069 -22.331  1.00  0.00    -0.167 F 
HETATM   16  F24 UNK     1     -65.094 -40.435 -23.474  1.00  0.00    -0.167 F 
HETATM   17  F26 UNK     1     -65.215 -38.730 -22.144  1.00  0.00    -0.167 F 
ENDBRANCH  12  14
BRANCH  12  18
HETATM   18  O27 UNK     1     -63.924 -40.092 -20.419  1.00  0.00    -0.373 OA
HETATM   19  H27 UNK     1     -63.907 -39.191 -20.803  1.00  0.00     0.211 HD
ENDBRANCH  12  18
ENDBRANCH   9  12
ENDBRANCH   1   8
BRANCH   4  20
HETATM   20  S13 UNK     1     -59.490 -46.700 -23.261  1.00  0.00     0.206 S 
HETATM   21  O14 UNK     1     -58.597 -46.840 -22.124  1.00  0.00    -0.217 OA
HETATM   22  O15 UNK     1     -60.361 -47.794 -23.649  1.00  0.00    -0.217 OA
BRANCH  20  23
HETATM   23  C16 UNK     1     -58.484 -46.344 -24.676  1.00  0.00     0.065 A 
HETATM   24  C17 UNK     1     -57.186 -46.864 -24.723  1.00  0.00     0.024 A 
HETATM   25  C18 UNK     1     -56.381 -46.606 -25.831  1.00  0.00     0.003 A 
HETATM   26  C19 UNK     1     -56.872 -45.827 -26.882  1.00  0.00     0.019 A 
HETATM   27  C20 UNK     1     -58.166 -45.312 -26.822  1.00  0.00     0.012 A 
HETATM   28  C21 UNK     1     -58.985 -45.566 -25.723  1.00  0.00     0.042 A 
HETATM   29 BR2  UNK     1     -58.824 -44.263 -28.250  1.00  0.00    -0.051 Br
ENDBRANCH  20  23
ENDBRANCH   4  20
TORSDOF 6
