REMARK  7 active torsions:
REMARK  status: ('A' for Active; 'I' for Inactive)
REMARK       I    between atoms: C20_2  and  N5_3 
REMARK    1  A    between atoms: C20_2  and  C19_19 
REMARK    2  A    between atoms: N5_3  and  C21_4 
REMARK    3  A    between atoms: C27_7  and  C28_8 
REMARK    4  A    between atoms: N_22  and  C2_24 
REMARK    5  A    between atoms: C2_24  and  C3_25 
REMARK       I    between atoms: C3_25  and  N1_27 
REMARK    6  A    between atoms: N2_30  and  C8_33 
REMARK    7  A    between atoms: C11_36  and  C14_39 
ROOT
HETATM    1  C19 UNK     1      34.131  53.289  49.581  1.00  0.00     0.092 C 
HETATM    2  C   UNK     1      35.109  53.491  48.420  1.00  0.00     0.030 C 
HETATM    3  C18 UNK     1      34.503  54.373  50.602  1.00  0.00     0.109 C 
HETATM    4  N   UNK     1      35.542  55.171  49.944  1.00  0.00    -0.287 NA
HETATM    5  C1  UNK     1      36.255  54.273  49.039  1.00  0.00     0.096 C 
ENDROOT
BRANCH   4   6
HETATM    6  C2  UNK     1      36.341  55.946  50.864  1.00  0.00     0.134 C 
BRANCH   6   7
HETATM    7  C3  UNK     1      37.833  55.927  50.956  1.00  0.00     0.253 C 
HETATM    8  O   UNK     1      38.460  54.885  50.786  1.00  0.00    -0.267 OA
HETATM    9  N1  UNK     1      38.454  57.120  51.304  1.00  0.00    -0.345 N 
HETATM   10  C4  UNK     1      39.912  57.109  51.340  1.00  0.00     0.146 C 
HETATM   11  C7  UNK     1      37.941  58.428  50.905  1.00  0.00     0.146 C 
HETATM   12  C5  UNK     1      40.498  57.420  49.949  1.00  0.00     0.143 C 
HETATM   13  N2  UNK     1      39.947  58.691  49.386  1.00  0.00    -0.378 N 
HETATM   14  C6  UNK     1      38.465  58.817  49.505  1.00  0.00     0.143 C 
BRANCH  13  15
HETATM   15  C8  UNK     1      40.522  59.114  48.164  1.00  0.00     0.030 A 
HETATM   16  C9  UNK     1      39.799  59.850  47.205  1.00  0.00     0.030 A 
HETATM   17  C10 UNK     1      40.374  60.279  45.998  1.00  0.00     0.017 A 
HETATM   18  C11 UNK     1      41.705  59.992  45.672  1.00  0.00     0.012 A 
HETATM   19  C12 UNK     1      42.442  59.283  46.627  1.00  0.00     0.017 A 
HETATM   20  C13 UNK     1      41.867  58.872  47.845  1.00  0.00     0.030 A 
BRANCH  18  21
HETATM   21  C14 UNK     1      42.291  60.420  44.392  1.00  0.00     0.159 A 
HETATM   22  N3  UNK     1      41.752  61.498  43.784  1.00  0.00    -0.241 NA
HETATM   23  C15 UNK     1      42.287  61.853  42.602  1.00  0.00     0.120 A 
HETATM   24  C16 UNK     1      43.312  61.168  41.997  1.00  0.00     0.038 A 
HETATM   25  C17 UNK     1      43.787  60.080  42.691  1.00  0.00     0.120 A 
HETATM   26  N4  UNK     1      43.308  59.691  43.887  1.00  0.00    -0.241 NA
ENDBRANCH  18  21
ENDBRANCH  13  15
ENDBRANCH   6   7
ENDBRANCH   4   6
BRANCH   1  27
HETATM   27  C20 UNK     1      34.245  51.893  50.190  1.00  0.00     0.227 C 
HETATM   28  O1  UNK     1      35.210  51.168  49.967  1.00  0.00    -0.273 OA
HETATM   29  N5  UNK     1      33.178  51.570  51.016  1.00  0.00    -0.327 N 
HETATM   30  HN5 UNK     1      32.541  52.315  51.265  1.00  0.00     0.169 HD
BRANCH  29  31
HETATM   31  C21 UNK     1      32.958  50.322  51.644  1.00  0.00     0.035 A 
HETATM   32  C22 UNK     1      32.024  50.282  52.686  1.00  0.00     0.032 A 
HETATM   33  C23 UNK     1      31.777  49.107  53.407  1.00  0.00     0.034 A 
HETATM   34  C24 UNK     1      32.461  47.956  53.005  1.00  0.00     0.062 A 
HETATM   35  C25 UNK     1      33.338  47.927  51.928  1.00  0.00     0.025 A 
HETATM   36  N8  UNK     1      32.461  46.684  53.501  1.00  0.00    -0.277 N 
HETATM   37  C26 UNK     1      33.610  49.141  51.256  1.00  0.00     0.045 A 
HETATM   38  C27 UNK     1      33.727  46.550  51.800  1.00  0.00     0.100 A 
HETATM   39  N7  UNK     1      33.205  45.817  52.802  1.00  0.00    -0.173 NA
HETATM   40  H8  UNK     1      31.965  46.339  54.313  1.00  0.00     0.189 HD
BRANCH  38  41
HETATM   41  C28 UNK     1      34.539  45.901  50.763  1.00  0.00    -0.002 A 
HETATM   42  C29 UNK     1      34.545  46.363  49.446  1.00  0.00     0.033 A 
HETATM   43  C30 UNK     1      35.295  45.676  48.504  1.00  0.00     0.117 A 
HETATM   44  N6  UNK     1      36.018  44.570  48.777  1.00  0.00    -0.273 NA
HETATM   45  C31 UNK     1      35.988  44.131  50.053  1.00  0.00     0.117 A 
HETATM   46  C32 UNK     1      35.276  44.751  51.065  1.00  0.00     0.033 A 
ENDBRANCH  38  41
ENDBRANCH  29  31
ENDBRANCH   1  27
TORSDOF 7
