REMARK  6 active torsions:
REMARK  status: ('A' for Active; 'I' for Inactive)
REMARK    1  A    between atoms: C11_8  and  C12_9 
REMARK    2  A    between atoms: C12_9  and  C15_10 
REMARK    3  A    between atoms: C19_13  and  N24_16 
REMARK    4  A    between atoms: N24_16  and  C26_17 
REMARK    5  A    between atoms: C26_17  and  C29_18 
REMARK    6  A    between atoms: C35_22  and  C40_25 
ROOT
HETATM    1  C15 UNK     1     -19.294   4.204  16.204  1.00  0.00    -0.036 A 
HETATM    2  C16 UNK     1     -19.185   5.585  16.282  1.00  0.00     0.126 A 
HETATM    3  N18 UNK     1     -20.155   6.421  16.773  1.00  0.00    -0.243 NA
HETATM    4  C19 UNK     1     -21.340   5.894  17.143  1.00  0.00     0.123 A 
HETATM    5  C20 UNK     1     -21.532   4.532  17.033  1.00  0.00     0.051 A 
HETATM    6  C22 UNK     1     -20.513   3.686  16.619  1.00  0.00     0.012 A 
ENDROOT
BRANCH   4   7
HETATM    7  N24 UNK     1     -22.328   6.798  17.489  1.00  0.00    -0.371 N 
HETATM    8  H24 UNK     1     -21.860   7.700  17.557  1.00  0.00     0.161 HD
BRANCH   7   9
HETATM    9  C26 UNK     1     -23.374   6.612  18.500  1.00  0.00     0.161 C 
BRANCH   9  10
HETATM   10  C29 UNK     1     -24.346   5.502  18.185  1.00  0.00    -0.023 C 
HETATM   11  C38 UNK     1     -24.188   4.221  18.729  1.00  0.00     0.012 C 
HETATM   12  C36 UNK     1     -24.830   3.137  18.130  1.00  0.00     0.037 C 
HETATM   13  C35 UNK     1     -25.706   3.368  17.067  1.00  0.00     0.140 C 
HETATM   14  N34 UNK     1     -26.015   4.633  16.663  1.00  0.00    -0.256 NA
HETATM   15  C32 UNK     1     -25.328   5.660  17.216  1.00  0.00     0.126 C 
BRANCH  13  16
HETATM   16  C40 UNK     1     -26.182   2.186  16.231  1.00  0.00     0.434 C 
HETATM   17  F43 UNK     1     -27.395   2.366  15.640  1.00  0.00    -0.165 F 
HETATM   18  F42 UNK     1     -26.293   1.032  16.956  1.00  0.00    -0.165 F 
HETATM   19  F41 UNK     1     -25.312   1.887  15.220  1.00  0.00    -0.165 F 
ENDBRANCH  13  16
ENDBRANCH   9  10
ENDBRANCH   7   9
ENDBRANCH   4   7
BRANCH   1  20
HETATM   20  C12 UNK     1     -18.343   3.197  15.627  1.00  0.00     0.081 C 
BRANCH  20  21
HETATM   21  C11 UNK     1     -16.993   3.736  15.303  1.00  0.00    -0.024 A 
HETATM   22  C7  UNK     1     -16.287   3.484  14.080  1.00  0.00     0.019 A 
HETATM   23  C5  UNK     1     -16.566   2.778  12.894  1.00  0.00     0.041 A 
HETATM   24  C8  UNK     1     -15.032   4.071  14.192  1.00  0.00     0.138 A 
HETATM   25  C1  UNK     1     -15.563   2.719  11.932  1.00  0.00     0.052 A 
HETATM   26 CL1  UNK     1     -15.818   1.848  10.471  1.00  0.00    -0.083 Cl
HETATM   27  C2  UNK     1     -14.353   3.360  12.172  1.00  0.00     0.142 A 
HETATM   28  N4  UNK     1     -14.029   4.053  13.295  1.00  0.00    -0.241 NA
HETATM   29  N9  UNK     1     -14.957   4.654  15.427  1.00  0.00    -0.350 N 
HETATM   30  C30 UNK     1     -16.118   4.434  16.124  1.00  0.00     0.098 A 
HETATM   31  H9  UNK     1     -14.140   5.137  15.765  1.00  0.00     0.166 HD
ENDBRANCH  20  21
ENDBRANCH   1  20
TORSDOF 6
