REMARK  8 active torsions:
REMARK  status: ('A' for Active; 'I' for Inactive)
REMARK    1  A    between atoms: C13_4  and  C9_11 
REMARK    2  A    between atoms: C16_8  and  O19_30 
REMARK    3  A    between atoms: C2_9  and  N12_27 
REMARK    4  A    between atoms: C22_17  and  N7_26 
REMARK    5  A    between atoms: C25_18  and  O28_31 
REMARK    6  A    between atoms: C30_21  and  O31_29 
REMARK    7  A    between atoms: C30_21  and  C29_22 
REMARK    8  A    between atoms: C29_22  and  O28_31 
ROOT
HETATM    1  C5  UNK     1     -14.625  11.742  27.704  1.00  0.00     0.036 A 
HETATM    2  C6  UNK     1     -13.653  12.737  27.701  1.00  0.00     0.048 A 
HETATM    3  C4  UNK     1     -15.781  12.035  28.409  1.00  0.00     0.148 A 
HETATM    4  C2  UNK     1     -14.978  14.112  28.958  1.00  0.00     0.201 A 
HETATM    5  C10 UNK     1     -14.480  10.453  27.034  1.00  0.00     0.035 A 
HETATM    6  C9  UNK     1     -15.436   9.513  27.097  1.00  0.00     0.045 A 
HETATM    7  C8  UNK     1     -16.700   9.818  27.862  1.00  0.00     0.260 A 
HETATM    8  C21 UNK     1     -12.331  12.573  27.008  1.00  0.00     0.071 C 
HETATM    9  N1  UNK     1     -13.820  13.914  28.343  1.00  0.00    -0.223 NA
HETATM   10  N3  UNK     1     -15.962  13.220  29.015  1.00  0.00    -0.200 NA
HETATM   11  N7  UNK     1     -16.796  11.045  28.522  1.00  0.00    -0.292 N 
HETATM   12  O11 UNK     1     -17.601   8.980  27.892  1.00  0.00    -0.267 OA
ENDROOT
BRANCH  11  13
HETATM   13  C22 UNK     1     -18.051  11.321  29.247  1.00  0.00     0.095 C 
HETATM   14  C23 UNK     1     -17.958  12.076  30.586  1.00  0.00     0.028 C 
HETATM   15  C24 UNK     1     -19.292  11.995  31.321  1.00  0.00     0.034 C 
HETATM   16  C25 UNK     1     -20.441  12.543  30.464  1.00  0.00     0.121 C 
HETATM   17  C26 UNK     1     -20.475  11.995  29.029  1.00  0.00     0.034 C 
HETATM   18  C27 UNK     1     -19.107  11.981  28.346  1.00  0.00     0.028 C 
BRANCH  16  19
HETATM   19  O28 UNK     1     -21.727  12.470  31.086  1.00  0.00    -0.384 OA
BRANCH  19  20
HETATM   20  C29 UNK     1     -22.103  11.288  31.793  1.00  0.00     0.194 C 
BRANCH  20  21
HETATM   21  C30 UNK     1     -22.381  10.079  30.905  1.00  0.00     0.190 C 
BRANCH  21  22
HETATM   22  O31 UNK     1     -22.971   9.026  31.660  1.00  0.00    -0.399 OA
HETATM   23  H31 UNK     1     -23.078   8.275  31.049  1.00  0.00     0.209 HD
ENDBRANCH  21  22
ENDBRANCH  20  21
ENDBRANCH  19  20
ENDBRANCH  16  19
ENDBRANCH  11  13
BRANCH   6  24
HETATM   24  C13 UNK     1     -15.238   8.214  26.403  1.00  0.00    -0.003 A 
HETATM   25  C14 UNK     1     -13.997   7.568  26.381  1.00  0.00     0.018 A 
HETATM   26  C15 UNK     1     -13.832   6.352  25.710  1.00  0.00     0.059 A 
HETATM   27  C16 UNK     1     -14.924   5.782  25.071  1.00  0.00     0.163 A 
HETATM   28  N17 UNK     1     -16.135   6.372  25.080  1.00  0.00    -0.236 NA
HETATM   29  C18 UNK     1     -16.270   7.552  25.739  1.00  0.00     0.132 A 
BRANCH  27  30
HETATM   30  O19 UNK     1     -14.914   4.604  24.385  1.00  0.00    -0.339 OA
HETATM   31  C20 UNK     1     -13.677   3.915  24.290  1.00  0.00     0.211 C 
ENDBRANCH  27  30
ENDBRANCH   6  24
BRANCH   4  32
HETATM   32  N12 UNK     1     -15.150  15.291  29.653  1.00  0.00    -0.271 NA
HETATM   33 1H12 UNK     1     -14.251  15.666  29.920  1.00  0.00     0.127 HD
HETATM   34 2H12 UNK     1     -15.830  15.160  30.391  1.00  0.00     0.127 HD
ENDBRANCH   4  32
TORSDOF 8
