REMARK  5 active torsions:
REMARK  status: ('A' for Active; 'I' for Inactive)
REMARK    1  A    between atoms: N20_3  and  C21_4 
REMARK       I    between atoms: N20_3  and  C18_26 
REMARK    2  A    between atoms: C04_14  and  N05_15 
REMARK       I    between atoms: N05_15  and  C06_16 
REMARK    3  A    between atoms: C06_16  and  C08_18 
REMARK    4  A    between atoms: C12_22  and  N14_23 
REMARK    5  A    between atoms: C16_24  and  N17_25 
REMARK       I    between atoms: N17_25  and  C18_26 
ROOT
HETATM    1  C13 UNK     1       1.895 -30.551 -31.419  1.00  0.00     0.048 A 
HETATM    2  C08 UNK     1       1.770 -31.706 -30.635  1.00  0.00     0.034 A 
HETATM    3  C09 UNK     1       2.309 -31.744 -29.347  1.00  0.00     0.017 A 
HETATM    4  C10 UNK     1       3.036 -30.654 -28.865  1.00  0.00     0.003 A 
HETATM    5  C11 UNK     1       3.223 -29.527 -29.669  1.00  0.00     0.031 A 
HETATM    6  C12 UNK     1       2.634 -29.463 -30.940  1.00  0.00     0.059 A 
ENDROOT
BRANCH   6   7
HETATM    7  N14 UNK     1       2.815 -28.308 -31.745  1.00  0.00    -0.243 N 
HETATM    8  C15 UNK     1       2.081 -27.934 -32.852  1.00  0.00     0.149 A 
HETATM    9  C16 UNK     1       2.675 -26.809 -33.367  1.00  0.00     0.073 A 
HETATM   10  C27 UNK     1       3.761 -26.563 -32.504  1.00  0.00     0.170 A 
HETATM   11  N28 UNK     1       3.817 -27.433 -31.493  1.00  0.00    -0.178 NA
BRANCH   9  12
HETATM   12  N17 UNK     1       2.213 -26.134 -34.480  1.00  0.00    -0.306 N 
HETATM   13  H17 UNK     1       1.388 -26.498 -34.931  1.00  0.00     0.171 HD
HETATM   14  C18 UNK     1       2.871 -25.054 -35.050  1.00  0.00     0.325 C 
HETATM   15  N20 UNK     1       2.127 -24.513 -36.086  1.00  0.00    -0.309 N 
HETATM   16  O19 UNK     1       3.961 -24.648 -34.668  1.00  0.00    -0.247 OA
HETATM   17  H20 UNK     1       1.178 -24.840 -36.181  1.00  0.00     0.170 HD
BRANCH  15  18
HETATM   18  C21 UNK     1       2.497 -23.450 -36.938  1.00  0.00     0.036 A 
HETATM   19  C26 UNK     1       3.761 -22.856 -36.940  1.00  0.00     0.029 A 
HETATM   20  C25 UNK     1       4.053 -21.807 -37.817  1.00  0.00     0.002 A 
HETATM   21  C24 UNK     1       3.085 -21.345 -38.705  1.00  0.00     0.000 A 
HETATM   22  C23 UNK     1       1.824 -21.934 -38.718  1.00  0.00     0.002 A 
HETATM   23  C22 UNK     1       1.532 -22.982 -37.840  1.00  0.00     0.029 A 
ENDBRANCH  15  18
ENDBRANCH   9  12
ENDBRANCH   6   7
BRANCH   2  24
HETATM   24  C06 UNK     1       1.082 -32.913 -31.174  1.00  0.00     0.256 C 
HETATM   25  N05 UNK     1       1.375 -33.182 -32.499  1.00  0.00    -0.323 N 
HETATM   26  H05 UNK     1       2.123 -32.645 -32.920  1.00  0.00     0.169 HD
HETATM   27  O07 UNK     1       0.376 -33.571 -30.423  1.00  0.00    -0.267 OA
BRANCH  25  28
HETATM   28  C04 UNK     1       0.852 -34.224 -33.293  1.00  0.00     0.038 A 
HETATM   29  C29 UNK     1      -0.195 -35.046 -32.897  1.00  0.00     0.049 A 
HETATM   30  C30 UNK     1      -0.608 -36.043 -33.765  1.00  0.00     0.119 A 
HETATM   31  N31 UNK     1      -0.053 -36.271 -34.975  1.00  0.00    -0.266 NA
HETATM   32  C02 UNK     1       0.964 -35.464 -35.351  1.00  0.00     0.032 A 
HETATM   33  C01 UNK     1       1.610 -35.740 -36.675  1.00  0.00     0.070 C 
HETATM   34  C03 UNK     1       1.429 -34.426 -34.549  1.00  0.00     0.056 A 
ENDBRANCH  25  28
ENDBRANCH   2  24
TORSDOF 5
