REMARK  6 active torsions:
REMARK  status: ('A' for Active; 'I' for Inactive)
REMARK    1  A    between atoms: C26_2  and  C6_5 
REMARK    2  A    between atoms: C11_12  and  C12_16 
REMARK    3  A    between atoms: N3_13  and  C2_14 
REMARK    4  A    between atoms: C12_16  and  N15_18 
REMARK    5  A    between atoms: N15_18  and  S16_19 
REMARK    6  A    between atoms: S16_19  and  C19_22 
ROOT
HETATM    1  C6  UNK     1      25.812  12.739  24.149  1.00  0.00     0.050 A 
HETATM    2  C5  UNK     1      26.431  11.478  24.030  1.00  0.00     0.048 A 
HETATM    3  C7  UNK     1      26.497  13.804  24.757  1.00  0.00     0.019 A 
HETATM    4  C8  UNK     1      27.802  13.647  25.241  1.00  0.00     0.035 A 
HETATM    5  C9  UNK     1      28.426  12.399  25.108  1.00  0.00     0.085 A 
HETATM    6  C4  UNK     1      27.740  11.345  24.518  1.00  0.00     0.065 A 
HETATM    7  N10 UNK     1      29.688  12.017  25.476  1.00  0.00    -0.231 NA
HETATM    8  C11 UNK     1      29.815  10.756  25.095  1.00  0.00     0.130 A 
HETATM    9  N3  UNK     1      28.629  10.292  24.563  1.00  0.00    -0.332 N 
ENDROOT
BRANCH   8  10
HETATM   10  C12 UNK     1      31.086   9.956  25.228  1.00  0.00     0.159 C 
HETATM   11  C14 UNK     1      32.199  10.636  24.432  1.00  0.00     0.041 C 
BRANCH  10  12
HETATM   12  N15 UNK     1      31.409   9.955  26.652  1.00  0.00    -0.304 N 
HETATM   13  H15 UNK     1      31.385  10.859  27.129  1.00  0.00     0.173 HD
BRANCH  12  14
HETATM   14  S16 UNK     1      32.363   8.777  27.325  1.00  0.00     0.259 S 
HETATM   15  O17 UNK     1      33.324   8.345  26.336  1.00  0.00    -0.201 OA
HETATM   16  O18 UNK     1      32.761   9.247  28.632  1.00  0.00    -0.201 OA
BRANCH  14  17
HETATM   17  C19 UNK     1      31.209   7.450  27.586  1.00  0.00     0.079 A 
HETATM   18  C20 UNK     1      30.108   7.656  28.423  1.00  0.00     0.027 A 
HETATM   19  C21 UNK     1      29.222   6.603  28.664  1.00  0.00     0.025 A 
HETATM   20  C22 UNK     1      29.445   5.359  28.072  1.00  0.00     0.034 A 
HETATM   21  C23 UNK     1      30.544   5.156  27.236  1.00  0.00     0.025 A 
HETATM   22 CL25 UNK     1      28.361   4.059  28.383  1.00  0.00    -0.084 Cl
HETATM   23  C24 UNK     1      31.432   6.205  26.988  1.00  0.00     0.027 A 
ENDBRANCH  14  17
ENDBRANCH  12  14
ENDBRANCH  10  12
ENDBRANCH   8  10
BRANCH   9  24
HETATM   24  C2  UNK     1      28.334   8.937  24.138  1.00  0.00     0.126 C 
HETATM   25  C1  UNK     1      28.662   8.704  22.674  1.00  0.00     0.027 C 
ENDBRANCH   9  24
BRANCH   1  26
HETATM   26  C26 UNK     1      24.412  12.961  23.622  1.00  0.00     0.417 C 
HETATM   27  F29 UNK     1      24.362  13.936  22.673  1.00  0.00    -0.166 F 
HETATM   28  F27 UNK     1      23.866  11.852  23.047  1.00  0.00    -0.166 F 
HETATM   29  F28 UNK     1      23.541  13.341  24.598  1.00  0.00    -0.166 F 
ENDBRANCH   1  26
TORSDOF 6
