REMARK  6 active torsions:
REMARK  status: ('A' for Active; 'I' for Inactive)
REMARK    1  A    between atoms: C1_1  and  C12_12 
REMARK    2  A    between atoms: C2_2  and  C6_6 
REMARK    3  A    between atoms: N4_4  and  C24_24 
REMARK    4  A    between atoms: C12_12  and  O14_14 
REMARK    5  A    between atoms: O14_14  and  C15_15 
REMARK    6  A    between atoms: C28_28  and  C30_30 
ROOT
HETATM    1  C6  UNK     1      27.917 -23.407   6.213  1.00  0.00    -0.030 A 
HETATM    2  C7  UNK     1      27.411 -24.692   5.945  1.00  0.00     0.011 A 
HETATM    3  C8  UNK     1      26.765 -25.434   6.938  1.00  0.00     0.023 A 
HETATM    4  C9  UNK     1      26.592 -24.894   8.214  1.00  0.00     0.044 A 
HETATM    5  C10 UNK     1      27.081 -23.615   8.495  1.00  0.00     0.023 A 
HETATM    6  C11 UNK     1      27.745 -22.883   7.506  1.00  0.00     0.011 A 
HETATM    7  C17 UNK     1      25.917 -25.644   9.233  1.00  0.00     0.099 C 
HETATM    8  N18 UNK     1      25.367 -26.235  10.066  1.00  0.00    -0.191 NA
ENDROOT
BRANCH   1   9
HETATM    9  C2  UNK     1      28.616 -22.567   5.128  1.00  0.00     0.181 C 
HETATM   10  C1  UNK     1      27.630 -21.771   4.289  1.00  0.00     0.068 C 
HETATM   11  C3  UNK     1      27.367 -22.011   2.975  1.00  0.00     0.045 C 
HETATM   12  C5  UNK     1      26.543 -21.050   2.140  1.00  0.00     0.070 C 
HETATM   13  N4  UNK     1      28.011 -23.094   2.291  1.00  0.00    -0.149 N 
HETATM   14  C20 UNK     1      29.095 -23.679   2.953  1.00  0.00     0.714 A 
HETATM   15  N19 UNK     1      29.445 -23.391   4.267  1.00  0.00    -0.176 N 
HETATM   16  N21 UNK     1      29.959 -24.601   2.433  1.00  0.00    -0.075 NA
HETATM   17  C23 UNK     1      30.561 -24.117   4.582  1.00  0.00     0.130 A 
HETATM   18  C22 UNK     1      30.825 -24.808   3.466  1.00  0.00     0.154 A 
BRANCH  10  19
HETATM   19  C12 UNK     1      27.036 -20.657   5.059  1.00  0.00     0.293 C 
HETATM   20  O13 UNK     1      27.675 -19.907   5.785  1.00  0.00    -0.259 OA
BRANCH  19  21
HETATM   21  O14 UNK     1      25.683 -20.712   4.978  1.00  0.00    -0.318 OA
BRANCH  21  22
HETATM   22  C15 UNK     1      24.975 -19.907   5.930  1.00  0.00     0.174 C 
HETATM   23  C16 UNK     1      24.898 -20.645   7.255  1.00  0.00     0.034 C 
ENDBRANCH  21  22
ENDBRANCH  19  21
ENDBRANCH  10  19
BRANCH  13  24
HETATM   24  C24 UNK     1      27.498 -23.655   1.070  1.00  0.00     0.058 A 
HETATM   25  C25 UNK     1      28.345 -24.005   0.006  1.00  0.00     0.030 A 
HETATM   26  C26 UNK     1      27.865 -24.638  -1.143  1.00  0.00     0.003 A 
HETATM   27  C27 UNK     1      26.505 -24.903  -1.274  1.00  0.00     0.016 A 
HETATM   28  C28 UNK     1      25.619 -24.543  -0.251  1.00  0.00     0.050 A 
HETATM   29  C29 UNK     1      26.128 -23.938   0.915  1.00  0.00     0.046 A 
BRANCH  28  30
HETATM   30  C30 UNK     1      24.141 -24.791  -0.383  1.00  0.00     0.417 C 
HETATM   31  F31 UNK     1      23.801 -25.493  -1.505  1.00  0.00    -0.166 F 
HETATM   32  F32 UNK     1      23.613 -25.492   0.659  1.00  0.00    -0.166 F 
HETATM   33  F33 UNK     1      23.422 -23.634  -0.452  1.00  0.00    -0.166 F 
ENDBRANCH  28  30
ENDBRANCH  13  24
ENDBRANCH   1   9
TORSDOF 6
