REMARK  9 active torsions:
REMARK  status: ('A' for Active; 'I' for Inactive)
REMARK       I    between atoms: C15_2  and  N19_3 
REMARK    1  A    between atoms: C15_2  and  C8_10 
REMARK    2  A    between atoms: N19_3  and  C20_7 
REMARK    3  A    between atoms: N19_3  and  C21_4 
REMARK    4  A    between atoms: N9_11  and  C16_13 
REMARK    5  A    between atoms: C4_23  and  N13_25 
REMARK    6  A    between atoms: N13_25  and  C26_26 
REMARK    7  A    between atoms: C26_26  and  C27_27 
REMARK    8  A    between atoms: C27_27  and  C28_28 
REMARK    9  A    between atoms: C28_28  and  O29_29 
ROOT
HETATM    1  C8  UNK     1      -1.975  45.352   1.366  1.00  0.00     0.105 A 
HETATM    2  N9  UNK     1      -2.920  44.993   2.330  1.00  0.00    -0.327 N 
HETATM    3  C2  UNK     1      -4.093  44.626   1.738  1.00  0.00     0.145 A 
HETATM    4  C7  UNK     1      -2.599  45.122   0.118  1.00  0.00     0.053 A 
HETATM    5  C1  UNK     1      -3.936  44.733   0.386  1.00  0.00     0.042 A 
HETATM    6  C6  UNK     1      -5.018  44.477  -0.396  1.00  0.00     0.082 A 
HETATM    7  N12 UNK     1      -5.224  44.561  -1.723  1.00  0.00    -0.343 N 
HETATM    8  C14 UNK     1      -4.317  44.976  -2.760  1.00  0.00     0.157 C 
HETATM    9  C11 UNK     1      -6.544  44.224  -1.937  1.00  0.00     0.210 A 
HETATM   10  C5  UNK     1      -6.223  44.099   0.178  1.00  0.00     0.131 A 
HETATM   11  N10 UNK     1      -7.168  43.922  -0.814  1.00  0.00    -0.238 NA
HETATM   12  C4  UNK     1      -6.309  43.991   1.600  1.00  0.00     0.157 A 
HETATM   13  N3  UNK     1      -5.222  44.270   2.360  1.00  0.00    -0.210 NA
ENDROOT
BRANCH   1  14
HETATM   14  C15 UNK     1      -0.552  45.692   1.544  1.00  0.00     0.271 C 
HETATM   15  O18 UNK     1       0.262  45.084   0.833  1.00  0.00    -0.266 OA
HETATM   16  N19 UNK     1      -0.061  46.733   2.430  1.00  0.00    -0.337 N 
BRANCH  16  17
HETATM   17  C20 UNK     1       1.346  47.109   2.184  1.00  0.00     0.088 A 
HETATM   18  C22 UNK     1       2.156  48.262   2.708  1.00  0.00     0.027 A 
HETATM   19  C23 UNK     1       2.376  46.883   3.265  1.00  0.00     0.027 A 
ENDBRANCH  16  17
BRANCH  16  20
HETATM   20  C21 UNK     1      -0.894  47.633   3.228  1.00  0.00     0.088 A 
HETATM   21  C25 UNK     1      -1.199  47.378   4.705  1.00  0.00     0.027 A 
HETATM   22  C24 UNK     1      -0.398  48.555   4.340  1.00  0.00     0.027 A 
ENDBRANCH  16  20
ENDBRANCH   1  14
BRANCH   2  23
HETATM   23  C16 UNK     1      -2.779  45.178   3.749  1.00  0.00     0.126 C 
HETATM   24  C17 UNK     1      -3.796  44.662   4.754  1.00  0.00     0.027 C 
ENDBRANCH   2  23
BRANCH  12  25
HETATM   25  N13 UNK     1      -7.476  43.629   2.245  1.00  0.00    -0.373 N 
HETATM   26  H13 UNK     1      -8.248  43.354   1.652  1.00  0.00     0.161 HD
BRANCH  25  27
HETATM   27  C26 UNK     1      -7.556  43.570   3.689  1.00  0.00     0.123 C 
BRANCH  27  28
HETATM   28  C27 UNK     1      -8.296  44.774   4.268  1.00  0.00     0.046 C 
BRANCH  28  29
HETATM   29  C28 UNK     1      -9.778  44.756   3.909  1.00  0.00     0.168 C 
BRANCH  29  30
HETATM   30  O29 UNK     1     -10.488  45.874   4.446  1.00  0.00    -0.396 OA
HETATM   31  C30 UNK     1     -10.684  45.807   5.851  1.00  0.00     0.201 C 
ENDBRANCH  29  30
ENDBRANCH  28  29
ENDBRANCH  27  28
ENDBRANCH  25  27
ENDBRANCH  12  25
TORSDOF 9
