REMARK  2 active torsions:
REMARK  status: ('A' for Active; 'I' for Inactive)
REMARK    1  A    between atoms: C7_6  and  C8_7 
REMARK    2  A    between atoms: C10_9  and  C4_19 
ROOT
HETATM    1  C01 UNK     1     -23.992  18.046  44.067  1.00  0.00     0.037 A 
HETATM    2  C02 UNK     1     -23.608  19.256  44.652  1.00  0.00     0.036 A 
HETATM    3  C03 UNK     1     -22.702  19.283  45.707  1.00  0.00     0.046 A 
HETATM    4  C04 UNK     1     -22.176  18.083  46.186  1.00  0.00     0.047 A 
HETATM    5  C6  UNK     1     -22.559  16.869  45.599  1.00  0.00     0.036 A 
HETATM    6  C7  UNK     1     -23.470  16.822  44.524  1.00  0.00    -0.004 A 
HETATM    7  C19 UNK     1     -21.244  18.092  47.275  1.00  0.00     0.099 C 
HETATM    8  N20 UNK     1     -20.487  18.105  48.155  1.00  0.00    -0.191 NA
HETATM    9 CL   UNK     1     -24.269  20.732  44.062  1.00  0.00    -0.084 Cl
ENDROOT
BRANCH   6  10
HETATM   10  C8  UNK     1     -23.859  15.527  43.924  1.00  0.00     0.070 A 
HETATM   11  C9  UNK     1     -24.222  15.385  42.597  1.00  0.00     0.066 A 
HETATM   12  C10 UNK     1     -24.567  14.117  42.153  1.00  0.00     0.089 A 
HETATM   13  N11 UNK     1     -24.551  13.051  42.986  1.00  0.00    -0.240 NA
HETATM   14  C12 UNK     1     -24.180  13.284  44.249  1.00  0.00     0.234 A 
HETATM   15  N13 UNK     1     -23.829  14.469  44.762  1.00  0.00    -0.241 NA
BRANCH  12  16
HETATM   16  C4  UNK     1     -24.969  13.862  40.748  1.00  0.00     0.085 A 
HETATM   17  C3  UNK     1     -25.302  12.582  40.286  1.00  0.00     0.037 A 
HETATM   18  C2  UNK     1     -25.672  12.402  38.953  1.00  0.00     0.046 A 
HETATM   19  C1  UNK     1     -25.701  13.501  38.113  1.00  0.00     0.133 A 
HETATM   20  F1  UNK     1     -26.051  13.364  36.829  1.00  0.00    -0.205 F 
HETATM   21  C5  UNK     1     -25.363  14.738  38.626  1.00  0.00     0.159 A 
HETATM   22  N1  UNK     1     -25.000  14.944  39.917  1.00  0.00    -0.256 NA
ENDBRANCH  12  16
ENDBRANCH   6  10
TORSDOF 2
