REMARK  6 active torsions:
REMARK  status: ('A' for Active; 'I' for Inactive)
REMARK    1  A    between atoms: C28_1  and  C30_25 
REMARK    2  A    between atoms: C28_1  and  O11_12 
REMARK    3  A    between atoms: C31_3  and  C30_25 
REMARK    4  A    between atoms: C32_4  and  C30_25 
REMARK    5  A    between atoms: O11_12  and  C5_19 
REMARK    6  A    between atoms: O33_13  and  C30_25 
ROOT
HETATM    1  C28 UNK     1      50.729   5.901  64.019  1.00  0.00     0.305 C 
HETATM    2  O29 UNK     1      50.102   5.136  63.286  1.00  0.00    -0.261 OA
ENDROOT
BRANCH   1   3
HETATM    3  C30 UNK     1      52.233   5.706  64.356  1.00  0.00     0.213 C 
BRANCH   3   4
HETATM    4  C31 UNK     1      52.980   7.032  64.389  1.00  0.00     0.032 A 
HETATM    5  C34 UNK     1      53.824   7.551  65.359  1.00  0.00     0.019 A 
HETATM    6  C35 UNK     1      54.401   8.800  64.987  1.00  0.00     0.008 A 
HETATM    7  C36 UNK     1      53.976   9.215  63.747  1.00  0.00     0.050 A 
HETATM    8  S37 UNK     1      52.888   8.109  63.039  1.00  0.00    -0.102 SA
ENDBRANCH   3   4
BRANCH   3   9
HETATM    9  C32 UNK     1      52.425   4.846  65.603  1.00  0.00     0.032 A 
HETATM   10  S44 UNK     1      51.249   4.737  66.851  1.00  0.00    -0.102 SA
HETATM   11  C43 UNK     1      52.194   3.657  67.770  1.00  0.00     0.050 A 
HETATM   12  C42 UNK     1      53.398   3.386  67.165  1.00  0.00     0.008 A 
HETATM   13  C41 UNK     1      53.531   4.068  65.923  1.00  0.00     0.019 A 
ENDBRANCH   3   9
BRANCH   3  14
HETATM   14  O33 UNK     1      52.834   4.952  63.292  1.00  0.00    -0.370 OA
HETATM   15  H33 UNK     1      52.218   4.221  63.096  1.00  0.00     0.212 HD
ENDBRANCH   3  14
ENDBRANCH   1   3
BRANCH   1  16
HETATM   16  O11 UNK     1      50.143   6.983  64.635  1.00  0.00    -0.313 OA
BRANCH  16  17
HETATM   17  C5  UNK     1      48.795   7.292  64.197  1.00  0.00     0.136 C 
HETATM   18  C4  UNK     1      48.578   8.818  64.391  1.00  0.00     0.069 C 
HETATM   19  C3  UNK     1      47.878   9.175  65.719  1.00  0.00     0.224 C 
HETATM   20  C9  UNK     1      48.771   8.684  66.848  1.00  0.00     0.184 A 
HETATM   21  N2  UNK     1      46.549   8.357  65.792  1.00  0.00    -0.061 N 
HETATM   22  O10 UNK     1      48.167   8.359  68.100  1.00  0.00    -0.371 OA
HETATM   23  C8  UNK     1      48.319   7.295  67.157  1.00  0.00     0.184 A 
HETATM   24  C7  UNK     1      47.178   6.993  66.196  1.00  0.00     0.224 C 
HETATM   25  C6  UNK     1      47.785   6.365  64.925  1.00  0.00     0.069 C 
HETATM   26  C1  UNK     1      45.674   8.362  64.544  1.00  0.00     0.273 C 
HETATM   27  C12 UNK     1      45.618   8.882  66.905  1.00  0.00     0.273 C 
ENDBRANCH  16  17
ENDBRANCH   1  16
TORSDOF 6
