REMARK  9 active torsions:
REMARK  status: ('A' for Active; 'I' for Inactive)
REMARK    1  A    between atoms: C17_7  and  C18_24 
REMARK    2  A    between atoms: C17_7  and  N16_23 
REMARK    3  A    between atoms: C1_14  and  C11_19 
REMARK    4  A    between atoms: C2_15  and  N4_16 
REMARK    5  A    between atoms: N4_16  and  C29_29 
REMARK    6  A    between atoms: C18_24  and  N19_25 
REMARK    7  A    between atoms: N33_33  and  C36_36 
REMARK    8  A    between atoms: C36_36  and  C37_37 
REMARK    9  A    between atoms: C37_37  and  O38_38 
ROOT
HETATM    1  N3  UNK     1       5.039  18.926  17.301  1.00  0.00    -0.061 NA
HETATM    2  C5  UNK     1       4.075  21.233  16.223  1.00  0.00     0.146 A 
HETATM    3  C7  UNK     1       5.348  19.289  16.039  1.00  0.00     0.098 A 
HETATM    4  C8  UNK     1       4.888  20.460  15.436  1.00  0.00    -0.005 A 
HETATM    5  C10 UNK     1       6.651  20.375  13.599  1.00  0.00     0.071 C 
HETATM    6  C13 UNK     1       6.899  19.003  14.111  1.00  0.00     0.070 A 
HETATM    7  C26 UNK     1       4.164  20.310  13.046  1.00  0.00     0.015 C 
HETATM    8  C2  UNK     1       4.284  19.783  17.999  1.00  0.00     0.728 A 
HETATM    9  N6  UNK     1       3.778  20.920  17.494  1.00  0.00    -0.074 NA
HETATM   10  C9  UNK     1       5.231  20.850  14.008  1.00  0.00     0.024 C 
HETATM   11  C11 UNK     1       6.730  17.165  15.378  1.00  0.00     0.077 A 
HETATM   12  C12 UNK     1       6.280  18.481  15.271  1.00  0.00     0.050 A 
HETATM   13  N14 UNK     1       7.712  18.137  13.530  1.00  0.00    -0.176 NA
HETATM   14  N15 UNK     1       7.594  17.026  14.290  1.00  0.00    -0.272 N 
HETATM   15  C25 UNK     1       8.284  15.848  13.812  1.00  0.00     0.180 C 
ENDROOT
BRANCH   8  16
HETATM   16  N4  UNK     1       3.983  19.427  19.321  1.00  0.00    -0.169 N 
HETATM   17  H4  UNK     1       4.127  18.436  19.423  1.00  0.00     0.186 HD
BRANCH  16  18
HETATM   18  C29 UNK     1       3.510  20.216  20.303  1.00  0.00     0.164 C 
HETATM   19  C28 UNK     1       3.743  21.615  20.368  1.00  0.00     0.071 C 
HETATM   20  C27 UNK     1       3.065  22.066  21.472  1.00  0.00     0.116 C 
HETATM   21  N19 UNK     1       2.447  20.973  21.974  1.00  0.00    -0.277 N 
HETATM   22  N30 UNK     1       2.832  19.799  21.391  1.00  0.00    -0.154 NA
BRANCH  21  23
HETATM   23  C18 UNK     1       1.473  20.951  23.049  1.00  0.00     0.178 C 
BRANCH  23  24
HETATM   24  C17 UNK     1       1.909  20.050  24.204  1.00  0.00     0.256 C 
BRANCH  24  25
HETATM   25  N16 UNK     1       2.224  18.613  23.763  1.00  0.00    -0.066 N 
HETATM   26  H16 UNK     1       2.838  18.754  22.923  1.00  0.00     0.280 HD
HETATM   27  C35 UNK     1       2.990  17.853  24.832  1.00  0.00     0.262 C 
HETATM   28  C34 UNK     1       3.399  16.442  24.353  1.00  0.00     0.262 C 
HETATM   29  N33 UNK     1       2.236  15.656  23.755  1.00  0.00    -0.066 N 
HETATM   30  C32 UNK     1       1.456  16.452  22.713  1.00  0.00     0.262 C 
HETATM   31  H33 UNK     1       1.566  15.375  24.497  1.00  0.00     0.280 HD
HETATM   32  C31 UNK     1       1.018  17.831  23.263  1.00  0.00     0.262 C 
BRANCH  29  33
HETATM   33  C36 UNK     1       2.739  14.298  23.234  1.00  0.00     0.261 C 
BRANCH  33  34
HETATM   34  C37 UNK     1       1.581  13.406  22.780  1.00  0.00     0.194 C 
BRANCH  34  35
HETATM   35  O38 UNK     1       0.555  13.467  23.775  1.00  0.00    -0.394 OA
HETATM   36  C39 UNK     1      -0.499  12.545  23.464  1.00  0.00     0.201 C 
ENDBRANCH  34  35
ENDBRANCH  33  34
ENDBRANCH  29  33
ENDBRANCH  24  25
ENDBRANCH  23  24
ENDBRANCH  21  23
ENDBRANCH  16  18
ENDBRANCH   8  16
BRANCH  11  37
HETATM   37  C1  UNK     1       6.366  16.076  16.307  1.00  0.00    -0.007 A 
HETATM   38  C20 UNK     1       7.312  15.165  16.799  1.00  0.00     0.014 A 
HETATM   39  C21 UNK     1       6.933  14.096  17.619  1.00  0.00     0.001 A 
HETATM   40  C22 UNK     1       5.606  13.948  18.009  1.00  0.00     0.000 A 
HETATM   41  C23 UNK     1       4.657  14.866  17.570  1.00  0.00     0.001 A 
HETATM   42  C24 UNK     1       5.034  15.907  16.713  1.00  0.00     0.014 A 
ENDBRANCH  11  37
TORSDOF 9
