REMARK  4 active torsions:
REMARK  status: ('A' for Active; 'I' for Inactive)
REMARK    1  A    between atoms: CAQ_2  and  CAW_4 
REMARK    2  A    between atoms: CAW_4  and  OAP_7 
REMARK    3  A    between atoms: OAP_7  and  CAR_8 
REMARK    4  A    between atoms: CAS_11  and  CAT_14 
ROOT
HETATM    1  CAR UNK     1      10.283  33.684  19.883  1.00  0.00     0.070 A 
HETATM    2  CAI UNK     1      10.500  34.989  19.458  1.00  0.00     0.037 A 
HETATM    3  CAK UNK     1       9.894  35.465  18.284  1.00  0.00     0.015 A 
HETATM    4  CAS UNK     1       9.071  34.642  17.498  1.00  0.00    -0.025 A 
HETATM    5  CAL UNK     1       8.833  33.339  17.957  1.00  0.00     0.015 A 
HETATM    6  CAJ UNK     1       9.428  32.872  19.134  1.00  0.00     0.037 A 
ENDROOT
BRANCH   4   7
HETATM    7  CAT UNK     1       8.455  35.127  16.241  1.00  0.00    -0.015 A 
HETATM    8  CAH UNK     1       7.049  35.088  16.138  1.00  0.00     0.013 A 
HETATM    9  CAG UNK     1       6.390  35.532  14.996  1.00  0.00     0.002 A 
HETATM   10  CAN UNK     1       7.124  36.040  13.931  1.00  0.00     0.012 A 
HETATM   11  CAU UNK     1       8.524  36.101  13.985  1.00  0.00    -0.025 A 
HETATM   12  CAM UNK     1       9.238  36.627  12.895  1.00  0.00     0.012 A 
HETATM   13  CAV UNK     1       9.213  35.630  15.135  1.00  0.00    -0.015 A 
HETATM   14  CAE UNK     1      10.629  36.689  12.910  1.00  0.00     0.001 A 
HETATM   15  CAF UNK     1      11.326  36.210  14.008  1.00  0.00     0.001 A 
HETATM   16  CAO UNK     1      10.628  35.680  15.098  1.00  0.00     0.013 A 
ENDBRANCH   4   7
BRANCH   1  17
HETATM   17  OAP UNK     1      10.820  33.064  20.971  1.00  0.00    -0.330 OA
BRANCH  17  18
HETATM   18  CAW UNK     1      11.778  33.712  21.848  1.00  0.00     0.148 C 
HETATM   19  CAB UNK     1      11.054  34.674  22.793  1.00  0.00     0.058 C 
HETATM   20  CAA UNK     1      12.369  32.570  22.695  1.00  0.00     0.058 C 
BRANCH  18  21
HETATM   21  CAQ UNK     1      13.033  34.291  21.109  1.00  0.00     0.209 C 
HETATM   22  OAD UNK     1      13.672  33.498  20.357  1.00  0.00    -0.646 OA
HETATM   23  OAC UNK     1      13.293  35.508  21.361  1.00  0.00    -0.646 OA
ENDBRANCH  18  21
ENDBRANCH  17  18
ENDBRANCH   1  17
TORSDOF 4
