REMARK  5 active torsions:
REMARK  status: ('A' for Active; 'I' for Inactive)
REMARK    1  A    between atoms: C10_7  and  C11_8 
REMARK    2  A    between atoms: C12_9  and  C18_18 
REMARK    3  A    between atoms: C13_10  and  S24_24 
REMARK    4  A    between atoms: C18_18  and  N20_20 
REMARK    5  A    between atoms: N20_20  and  S24_24 
ROOT
HETATM    1  C7  UNK     1       5.921  17.774  17.624  1.00  0.00     0.010 A 
HETATM    2  C10 UNK     1       7.070  17.627  15.475  1.00  0.00    -0.021 A 
HETATM    3  C12 UNK     1       6.679  18.892  17.985  1.00  0.00    -0.040 A 
HETATM    4  C4  UNK     1       7.814  18.758  15.835  1.00  0.00     0.013 A 
HETATM    5  C5  UNK     1       6.130  17.138  16.393  1.00  0.00     0.013 A 
HETATM    6  C6  UNK     1       7.628  19.379  17.077  1.00  0.00     0.010 A 
ENDROOT
BRANCH   3   7
HETATM    7  C18 UNK     1       6.458  19.590  19.306  1.00  0.00     0.170 C 
BRANCH   7   8
HETATM    8  N20 UNK     1       5.579  20.744  19.144  1.00  0.00    -0.311 N 
HETATM    9  H20 UNK     1       5.715  21.326  18.319  1.00  0.00     0.172 HD
BRANCH   8  10
HETATM   10  S24 UNK     1       5.227  21.656  20.508  1.00  0.00     0.259 S 
HETATM   11  O21 UNK     1       4.811  22.954  20.028  1.00  0.00    -0.201 OA
HETATM   12  O22 UNK     1       6.320  21.502  21.443  1.00  0.00    -0.201 OA
BRANCH  10  13
HETATM   13  C13 UNK     1       3.791  20.847  21.158  1.00  0.00     0.079 A 
HETATM   14  C8  UNK     1       3.829  20.262  22.427  1.00  0.00     0.025 A 
HETATM   15  C2  UNK     1       2.674  19.670  22.943  1.00  0.00     0.002 A 
HETATM   16  C1  UNK     1       1.495  19.669  22.199  1.00  0.00     0.000 A 
HETATM   17  C3  UNK     1       1.462  20.256  20.933  1.00  0.00     0.002 A 
HETATM   18  C9  UNK     1       2.609  20.850  20.409  1.00  0.00     0.025 A 
ENDBRANCH  10  13
ENDBRANCH   8  10
ENDBRANCH   7   8
ENDBRANCH   3   7
BRANCH   2  19
HETATM   19  C11 UNK     1       7.279  16.985  14.180  1.00  0.00     0.032 A 
HETATM   20  C14 UNK     1       8.467  16.788  13.408  1.00  0.00     0.071 A 
HETATM   21  N19 UNK     1       8.206  16.157  12.257  1.00  0.00    -0.133 NA
HETATM   22  C16 UNK     1       9.870  17.160  13.712  1.00  0.00     0.074 C 
HETATM   23  O23 UNK     1       6.851  15.931  12.250  1.00  0.00    -0.217 OA
HETATM   24  C15 UNK     1       6.292  16.428  13.386  1.00  0.00     0.088 A 
HETATM   25  C17 UNK     1       4.827  16.255  13.467  1.00  0.00     0.080 C 
ENDBRANCH   2  19
TORSDOF 5
