REMARK  1 active torsions:
REMARK  status: ('A' for Active; 'I' for Inactive)
REMARK    1  A    between atoms: C19_2  and  C18_4 
ROOT
HETATM    1  C18 UNK     1     -18.915  -8.374 -30.005  1.00  0.00     0.041 A 
HETATM    2  C17 UNK     1     -17.777  -7.678 -29.561  1.00  0.00     0.028 A 
HETATM    3  C22 UNK     1     -20.101  -7.648 -30.197  1.00  0.00     0.021 A 
HETATM    4  C23 UNK     1     -20.147  -6.273 -29.954  1.00  0.00     0.038 A 
HETATM    5  C24 UNK     1     -19.007  -5.599 -29.518  1.00  0.00     0.079 A 
HETATM    6  C16 UNK     1     -17.818  -6.299 -29.302  1.00  0.00    -0.023 A 
HETATM    7  C15 UNK     1     -16.586  -5.594 -28.828  1.00  0.00     0.046 C 
HETATM    8  C14 UNK     1     -16.959  -4.263 -28.193  1.00  0.00     0.074 C 
HETATM    9  O25 UNK     1     -19.154  -4.259 -29.285  1.00  0.00    -0.313 OA
HETATM   10  C13 UNK     1     -17.940  -3.506 -29.103  1.00  0.00     0.177 C 
HETATM   11  O12 UNK     1     -17.262  -3.235 -30.345  1.00  0.00    -0.313 OA
HETATM   12  C11 UNK     1     -17.830  -2.285 -31.147  1.00  0.00     0.079 A 
HETATM   13  C26 UNK     1     -18.316  -2.186 -28.410  1.00  0.00     0.074 C 
HETATM   14  C27 UNK     1     -19.265  -1.388 -29.293  1.00  0.00     0.046 C 
HETATM   15  C28 UNK     1     -18.765  -1.359 -30.706  1.00  0.00    -0.024 A 
HETATM   16  C29 UNK     1     -19.264  -0.417 -31.614  1.00  0.00     0.018 A 
HETATM   17  C30 UNK     1     -18.827  -0.361 -32.958  1.00  0.00    -0.042 A 
HETATM   18  C09 UNK     1     -17.892  -1.325 -33.404  1.00  0.00    -0.040 A 
HETATM   19  C10 UNK     1     -17.392  -2.257 -32.469  1.00  0.00     0.046 A 
HETATM   20  C06 UNK     1     -17.383  -1.371 -34.850  1.00  0.00    -0.020 C 
HETATM   21  C07 UNK     1     -17.374  -2.812 -35.415  1.00  0.00     0.020 C 
HETATM   22  C08 UNK     1     -15.936  -0.829 -34.882  1.00  0.00     0.020 C 
HETATM   23  C05 UNK     1     -18.279  -0.538 -35.793  1.00  0.00     0.015 C 
HETATM   24  C04 UNK     1     -18.612   0.823 -35.205  1.00  0.00     0.015 C 
HETATM   25  C02 UNK     1     -19.415   0.706 -33.891  1.00  0.00    -0.020 C 
HETATM   26  C03 UNK     1     -19.394   2.110 -33.240  1.00  0.00     0.020 C 
HETATM   27  C01 UNK     1     -20.882   0.338 -34.205  1.00  0.00     0.020 C 
ENDROOT
BRANCH   1  28
HETATM   28  C19 UNK     1     -18.862  -9.868 -30.265  1.00  0.00     0.209 C 
HETATM   29  O21 UNK     1     -19.933 -10.426 -30.663  1.00  0.00    -0.644 OA
HETATM   30  O20 UNK     1     -17.751 -10.453 -30.060  1.00  0.00    -0.644 OA
ENDBRANCH   1  28
TORSDOF 1
