REMARK  7 active torsions:
REMARK  status: ('A' for Active; 'I' for Inactive)
REMARK    1  A    between atoms: C2_1  and  N2_23 
REMARK    2  A    between atoms: C10_3  and  O6_17 
REMARK    3  A    between atoms: C10_3  and  C11_4 
REMARK    4  A    between atoms: C20_11  and  S23_26 
REMARK    5  A    between atoms: N26_14  and  S23_26 
REMARK    6  A    between atoms: C6_16  and  O6_17 
REMARK    7  A    between atoms: N2_23  and  C17_24 
ROOT
HETATM    1  C2  UNK     1      22.373  75.558  13.743  1.00  0.00     0.731 A 
HETATM    2  C8  UNK     1      19.398  74.445  10.711  1.00  0.00     0.209 A 
HETATM    3  N1  UNK     1      22.866  76.335  12.752  1.00  0.00    -0.035 NA
HETATM    4  C6  UNK     1      22.240  76.353  11.544  1.00  0.00     0.216 A 
HETATM    5  C5  UNK     1      21.118  75.553  11.340  1.00  0.00     0.158 A 
HETATM    6  N7  UNK     1      20.281  75.315  10.268  1.00  0.00    -0.236 NA
HETATM    7  N9  UNK     1      19.623  74.115  12.020  1.00  0.00    -0.333 N 
HETATM    8  C4  UNK     1      20.717  74.816  12.436  1.00  0.00     0.181 A 
HETATM    9  N3  UNK     1      21.280  74.776  13.646  1.00  0.00    -0.042 NA
HETATM   10  H9  UNK     1      19.095  73.467  12.585  1.00  0.00     0.168 HD
ENDROOT
BRANCH   1  11
HETATM   11  N2  UNK     1      23.135  75.557  14.912  1.00  0.00    -0.188 N 
HETATM   12  H2  UNK     1      24.001  76.050  14.754  1.00  0.00     0.184 HD
BRANCH  11  13
HETATM   13  C17 UNK     1      22.970  74.906  16.139  1.00  0.00     0.049 A 
HETATM   14  C22 UNK     1      24.108  74.599  16.905  1.00  0.00     0.031 A 
HETATM   15  C21 UNK     1      24.007  73.876  18.099  1.00  0.00     0.027 A 
HETATM   16  C20 UNK     1      22.754  73.455  18.542  1.00  0.00     0.074 A 
HETATM   17  C19 UNK     1      21.607  73.763  17.811  1.00  0.00     0.027 A 
HETATM   18  C18 UNK     1      21.724  74.475  16.613  1.00  0.00     0.031 A 
BRANCH  16  19
HETATM   19  S23 UNK     1      22.601  72.520  20.032  1.00  0.00     0.239 S 
HETATM   20  O24 UNK     1      21.609  73.147  20.873  1.00  0.00    -0.206 OA
HETATM   21  O25 UNK     1      23.915  72.159  20.511  1.00  0.00    -0.206 OA
BRANCH  19  22
HETATM   22  N26 UNK     1      21.917  71.085  19.488  1.00  0.00    -0.225 NA
HETATM   23 2H26 UNK     1      21.006  70.948  19.927  1.00  0.00     0.136 HD
HETATM   24 1H26 UNK     1      22.568  70.314  19.640  1.00  0.00     0.136 HD
ENDBRANCH  19  22
ENDBRANCH  16  19
ENDBRANCH  11  13
ENDBRANCH   1  11
BRANCH   4  25
HETATM   25  O6  UNK     1      22.766  77.097  10.507  1.00  0.00    -0.332 OA
BRANCH  25  26
HETATM   26  C10 UNK     1      23.442  78.271  10.957  1.00  0.00     0.182 C 
BRANCH  26  27
HETATM   27  C11 UNK     1      23.914  79.069   9.729  1.00  0.00     0.010 C 
HETATM   28  C12 UNK     1      22.736  79.474   8.825  1.00  0.00     0.007 C 
HETATM   29  C13 UNK     1      23.198  80.316   7.637  1.00  0.00     0.000 C 
HETATM   30  C14 UNK     1      23.993  81.537   8.087  1.00  0.00     0.000 C 
HETATM   31  C15 UNK     1      25.168  81.141   8.975  1.00  0.00     0.000 C 
HETATM   32  C16 UNK     1      24.714  80.304  10.168  1.00  0.00     0.007 C 
ENDBRANCH  26  27
ENDBRANCH  25  26
ENDBRANCH   4  25
TORSDOF 7
