REMARK  6 active torsions:
REMARK  status: ('A' for Active; 'I' for Inactive)
REMARK    1  A    between atoms: C2_2  and  C6_9 
REMARK    2  A    between atoms: C5_6  and  N2_8 
REMARK    3  A    between atoms: C8_11  and  C12_17 
REMARK    4  A    between atoms: C12_17  and  N3_18 
REMARK    5  A    between atoms: N3_18  and  C13_19 
REMARK    6  A    between atoms: C13_19  and  C16_22 
ROOT
HETATM    1  C6  UNK     1      -3.943  26.377   5.024  1.00  0.00     0.011 A 
HETATM    2  C7  UNK     1      -3.570  27.162   6.137  1.00  0.00     0.025 A 
HETATM    3  C8  UNK     1      -2.243  27.580   6.326  1.00  0.00     0.007 A 
HETATM    4  C9  UNK     1      -1.282  27.184   5.396  1.00  0.00     0.127 A 
HETATM    5  C10 UNK     1      -1.606  26.386   4.313  1.00  0.00     0.085 A 
HETATM    6  C11 UNK     1      -2.926  25.992   4.134  1.00  0.00     0.128 A 
HETATM    7  F1  UNK     1      -3.209  25.231   3.069  1.00  0.00    -0.205 F 
HETATM    8  F2  UNK     1      -0.008  27.559   5.588  1.00  0.00    -0.205 F 
ENDROOT
BRANCH   3   9
HETATM    9  C12 UNK     1      -1.849  28.459   7.480  1.00  0.00     0.275 C 
BRANCH   9  10
HETATM   10  N3  UNK     1      -0.787  27.824   8.321  1.00  0.00    -0.053 N 
HETATM   11 3HN3 UNK     1       0.008  27.588   7.708  1.00  0.00     0.278 HD
HETATM   12 2HN3 UNK     1      -1.155  26.930   8.682  1.00  0.00     0.278 HD
BRANCH  10  13
HETATM   13  C13 UNK     1      -0.294  28.644   9.501  1.00  0.00     0.222 A 
HETATM   14  C14 UNK     1       0.878  29.557   9.189  1.00  0.00     0.051 A 
HETATM   15  C15 UNK     1       1.118  28.277   9.931  1.00  0.00     0.051 A 
BRANCH  13  16
HETATM   16  C16 UNK     1      -1.295  29.087  10.589  1.00  0.00     0.420 C 
HETATM   17  F4  UNK     1      -2.427  28.355  10.461  1.00  0.00    -0.168 F 
HETATM   18  F3  UNK     1      -1.617  30.386  10.425  1.00  0.00    -0.168 F 
HETATM   19  F5  UNK     1      -0.809  28.898  11.830  1.00  0.00    -0.168 F 
ENDBRANCH  13  16
ENDBRANCH  10  13
ENDBRANCH   9  10
ENDBRANCH   3   9
BRANCH   1  20
HETATM   20  C2  UNK     1      -5.409  25.988   4.769  1.00  0.00     0.083 C 
HETATM   21  C1  UNK     1      -5.547  24.449   4.846  1.00  0.00     0.046 C 
HETATM   22  C3  UNK     1      -5.926  26.447   3.390  1.00  0.00     0.049 C 
HETATM   23  C4  UNK     1      -5.848  27.952   3.228  1.00  0.00     0.084 C 
HETATM   24  S1  UNK     1      -6.738  28.832   4.521  1.00  0.00    -0.099 SA
HETATM   25  C5  UNK     1      -6.885  27.631   5.764  1.00  0.00     0.134 C 
HETATM   26  N1  UNK     1      -6.311  26.487   5.816  1.00  0.00    -0.256 NA
BRANCH  25  27
HETATM   27  N2  UNK     1      -7.709  28.015   6.768  1.00  0.00    -0.282 NA
HETATM   28  H21 UNK     1      -8.412  28.689   6.487  1.00  0.00     0.126 HD
HETATM   29  H22 UNK     1      -8.091  27.228   7.282  1.00  0.00     0.126 HD
ENDBRANCH  25  27
ENDBRANCH   1  20
TORSDOF 6
