REMARK  5 active torsions:
REMARK  status: ('A' for Active; 'I' for Inactive)
REMARK    1  A    between atoms: C15_2  and  N20_23 
REMARK    2  A    between atoms: C22_4  and  S21_24 
REMARK    3  A    between atoms: C08_14  and  O11_17 
REMARK    4  A    between atoms: O11_17  and  C12_18 
REMARK    5  A    between atoms: N20_23  and  S21_24 
ROOT
HETATM    1  C13 UNK     1     111.177  29.108  11.577  1.00  0.00     0.071 A 
HETATM    2  C15 UNK     1     112.343  28.644  13.635  1.00  0.00     0.046 A 
HETATM    3  C17 UNK     1     109.952  29.020  13.658  1.00  0.00     0.071 A 
HETATM    4  C12 UNK     1     109.956  29.204  12.268  1.00  0.00     0.119 A 
HETATM    5  C14 UNK     1     112.367  28.825  12.255  1.00  0.00     0.057 A 
HETATM    6  C16 UNK     1     111.136  28.702  14.328  1.00  0.00     0.057 A 
HETATM    7 CL1  UNK     1     108.564  29.295  14.651  1.00  0.00    -0.081 Cl
HETATM    8 CL2  UNK     1     111.267  29.408   9.877  1.00  0.00    -0.081 Cl
ENDROOT
BRANCH   2   9
HETATM    9  N20 UNK     1     113.540  28.553  14.403  1.00  0.00    -0.280 N 
HETATM   10  H20 UNK     1     113.470  28.181  15.352  1.00  0.00     0.179 HD
BRANCH   9  11
HETATM   11  S21 UNK     1     114.642  29.848  14.361  1.00  0.00     0.266 S 
HETATM   12  O24 UNK     1     115.358  29.762  13.106  1.00  0.00    -0.200 OA
HETATM   13  O23 UNK     1     115.339  29.846  15.628  1.00  0.00    -0.200 OA
BRANCH  11  14
HETATM   14  C22 UNK     1     113.639  31.301  14.294  1.00  0.00     0.121 A 
HETATM   15  C29 UNK     1     113.714  32.144  13.180  1.00  0.00     0.072 A 
HETATM   16  C28 UNK     1     112.856  33.235  13.099  1.00  0.00     0.135 A 
HETATM   17  F32 UNK     1     112.921  34.021  12.016  1.00  0.00    -0.205 F 
HETATM   18  C27 UNK     1     111.933  33.492  14.114  1.00  0.00     0.052 A 
HETATM   19  C26 UNK     1     111.876  32.659  15.232  1.00  0.00     0.066 A 
HETATM   20 BR1  UNK     1     110.740  34.951  13.978  1.00  0.00    -0.048 Br
HETATM   21  C25 UNK     1     112.737  31.567  15.319  1.00  0.00     0.141 A 
HETATM   22  F30 UNK     1     112.630  30.747  16.372  1.00  0.00    -0.204 F 
ENDBRANCH  11  14
ENDBRANCH   9  11
ENDBRANCH   2   9
BRANCH   4  23
HETATM   23  O11 UNK     1     108.861  29.630  11.550  1.00  0.00    -0.306 OA
BRANCH  23  24
HETATM   24  C08 UNK     1     107.679  28.944  11.639  1.00  0.00     0.094 A 
HETATM   25  C07 UNK     1     106.520  29.692  11.462  1.00  0.00     0.052 A 
HETATM   26  C04 UNK     1     105.267  29.074  11.551  1.00  0.00    -0.005 A 
HETATM   27  C03 UNK     1     104.076  29.802  11.381  1.00  0.00     0.014 A 
HETATM   28  C05 UNK     1     105.227  27.688  11.815  1.00  0.00     0.067 A 
HETATM   29  C02 UNK     1     102.843  29.162  11.469  1.00  0.00     0.001 A 
HETATM   30  C01 UNK     1     102.795  27.798  11.738  1.00  0.00     0.002 A 
HETATM   31  C06 UNK     1     103.983  27.079  11.912  1.00  0.00     0.032 A 
HETATM   32  N10 UNK     1     106.345  26.952  11.964  1.00  0.00    -0.258 NA
HETATM   33  C09 UNK     1     107.540  27.583  11.859  1.00  0.00     0.154 A 
ENDBRANCH  23  24
ENDBRANCH   4  23
TORSDOF 5
