REMARK  7 active torsions:
REMARK  status: ('A' for Active; 'I' for Inactive)
REMARK    1  A    between atoms: CAW_3  and  OAC_4 
REMARK    2  A    between atoms: CAZ_7  and  CAU_8 
REMARK    3  A    between atoms: CAV_9  and  CBA_10 
REMARK    4  A    between atoms: CAX_13  and  OAD_14 
REMARK    5  A    between atoms: CBD_21  and  SBE_22 
REMARK    6  A    between atoms: SBE_22  and  OAT_25 
REMARK    7  A    between atoms: OAT_25  and  CAY_26 
ROOT
HETATM    1  CAU UNK     1      -6.912  20.953   5.745  1.00  0.00    -0.009 C 
HETATM    2  CAV UNK     1      -5.721  20.353   5.966  1.00  0.00    -0.008 C 
HETATM    3  CBC UNK     1      -4.681  21.343   5.483  1.00  0.00     0.177 C 
HETATM    4  OAS UNK     1      -5.343  22.584   5.858  1.00  0.00    -0.370 OA
HETATM    5  CBB UNK     1      -6.590  22.318   5.172  1.00  0.00     0.158 C 
HETATM    6  CAR UNK     1      -6.069  22.195   3.734  1.00  0.00     0.062 C 
HETATM    7  CBD UNK     1      -4.758  21.420   3.961  1.00  0.00     0.173 C 
ENDROOT
BRANCH   7   8
HETATM    8  SBE UNK     1      -3.309  22.183   3.294  1.00  0.00     0.277 S 
HETATM    9  OAA UNK     1      -2.185  21.339   3.657  1.00  0.00    -0.198 OA
HETATM   10  OAB UNK     1      -3.576  22.513   1.907  1.00  0.00    -0.198 OA
BRANCH   8  11
HETATM   11  OAT UNK     1      -3.286  23.549   4.178  1.00  0.00    -0.233 OA
BRANCH  11  12
HETATM   12  CAY UNK     1      -2.232  24.426   4.161  1.00  0.00     0.089 A 
HETATM   13  CAH UNK     1      -1.098  24.312   3.356  1.00  0.00     0.038 A 
HETATM   14  CAF UNK     1      -0.084  25.271   3.434  1.00  0.00     0.003 A 
HETATM   15  CAE UNK     1      -0.202  26.348   4.311  1.00  0.00     0.000 A 
HETATM   16  CAG UNK     1      -1.334  26.469   5.113  1.00  0.00     0.003 A 
HETATM   17  CAI UNK     1      -2.346  25.510   5.038  1.00  0.00     0.038 A 
ENDBRANCH  11  12
ENDBRANCH   8  11
ENDBRANCH   7   8
BRANCH   2  18
HETATM   18  CBA UNK     1      -5.323  19.063   6.536  1.00  0.00    -0.026 A 
HETATM   19  CAP UNK     1      -4.151  18.423   6.096  1.00  0.00     0.015 A 
HETATM   20  CAL UNK     1      -3.711  17.231   6.682  1.00  0.00     0.037 A 
HETATM   21  CAX UNK     1      -4.445  16.672   7.720  1.00  0.00     0.065 A 
HETATM   22  CAM UNK     1      -5.608  17.281   8.171  1.00  0.00     0.037 A 
HETATM   23  CAQ UNK     1      -6.042  18.475   7.585  1.00  0.00     0.015 A 
BRANCH  21  24
HETATM   24  OAD UNK     1      -4.045  15.521   8.332  1.00  0.00    -0.361 OA
HETATM   25  HAD UNK     1      -3.206  15.232   7.937  1.00  0.00     0.217 HD
ENDBRANCH  21  24
ENDBRANCH   2  18
BRANCH   1  26
HETATM   26  CAZ UNK     1      -8.295  20.533   5.969  1.00  0.00    -0.027 A 
HETATM   27  CAN UNK     1      -9.222  21.428   6.527  1.00  0.00     0.015 A 
HETATM   28  CAJ UNK     1     -10.562  21.069   6.695  1.00  0.00     0.037 A 
HETATM   29  CAW UNK     1     -10.982  19.804   6.306  1.00  0.00     0.065 A 
HETATM   30  CAK UNK     1     -10.083  18.898   5.757  1.00  0.00     0.037 A 
HETATM   31  CAO UNK     1      -8.742  19.262   5.586  1.00  0.00     0.015 A 
BRANCH  29  32
HETATM   32  OAC UNK     1     -12.279  19.412   6.446  1.00  0.00    -0.361 OA
HETATM   33  HAC UNK     1     -12.783  20.141   6.847  1.00  0.00     0.217 HD
ENDBRANCH  29  32
ENDBRANCH   1  26
TORSDOF 7
