REMARK  1 active torsions:
REMARK  status: ('A' for Active; 'I' for Inactive)
REMARK       I    between atoms: CAL_2  and  NAM_3 
REMARK    1  A    between atoms: CAL_2  and  CAD_4 
ROOT
HETATM    1  CAD UNK     1       7.840   0.873  18.195  1.00  0.00     0.065 A 
HETATM    2  CAC UNK     1       7.143   0.172  19.166  1.00  0.00     0.092 A 
HETATM    3  OAI UNK     1       5.926   0.525  19.689  1.00  0.00    -0.339 OA
HETATM    4  CAH UNK     1       5.688  -0.397  20.787  1.00  0.00     0.064 C 
HETATM    5  CAK UNK     1       5.905   0.368  22.098  1.00  0.00     0.046 C 
HETATM    6  CAJ UNK     1       4.234  -0.862  20.689  1.00  0.00     0.046 C 
HETATM    7  CAE UNK     1       9.058   0.341  17.740  1.00  0.00     0.020 A 
HETATM    8  CAF UNK     1       9.542  -0.873  18.254  1.00  0.00     0.002 A 
HETATM    9  CAA UNK     1       8.820  -1.568  19.226  1.00  0.00     0.010 A 
HETATM   10  CAB UNK     1       7.625  -1.027  19.673  1.00  0.00    -0.021 A 
HETATM   11  CAG UNK     1       6.663  -1.587  20.651  1.00  0.00     0.079 C 
ENDROOT
BRANCH   1  12
HETATM   12  CAL UNK     1       7.338   2.162  17.668  1.00  0.00     0.252 C 
HETATM   13  OAN UNK     1       6.820   3.015  18.375  1.00  0.00    -0.268 OA
HETATM   14  NAM UNK     1       7.490   2.362  16.321  1.00  0.00    -0.366 N 
HETATM   15 1HAM UNK     1       7.048   3.190  15.943  1.00  0.00     0.159 HD
HETATM   16 2HAM UNK     1       7.703   1.605  15.689  1.00  0.00     0.159 HD
ENDBRANCH   1  12
TORSDOF 1
