REMARK  10 active torsions:
REMARK  status: ('A' for Active; 'I' for Inactive)
REMARK    1  A    between atoms: C15_9  and  C16_21 
REMARK    2  A    between atoms: C09_12  and  C10_19 
REMARK       I    between atoms: C16_21  and  N17_23 
REMARK    3  A    between atoms: N17_23  and  C18_24 
REMARK    4  A    between atoms: C18_24  and  C19_25 
REMARK    5  A    between atoms: C18_24  and  C26_32 
REMARK    6  A    between atoms: C19_25  and  C20_26 
REMARK    7  A    between atoms: C26_32  and  O27_33 
REMARK    8  A    between atoms: C26_32  and  C28_34 
REMARK    9  A    between atoms: N32_39  and  C33_41 
REMARK   10  A    between atoms: C33_41  and  C34_42 
ROOT
HETATM    1  C18 UNK     1      -2.709 -17.909  33.318  1.00  0.00     0.120 C 
ENDROOT
BRANCH   1   2
HETATM    2  N17 UNK     1      -1.246 -18.003  33.392  1.00  0.00    -0.349 N 
HETATM    3  C16 UNK     1      -0.519 -19.144  33.105  1.00  0.00     0.252 C 
HETATM    4  O42 UNK     1      -1.039 -20.256  33.192  1.00  0.00    -0.268 OA
HETATM    5  H17 UNK     1      -0.789 -17.105  33.309  1.00  0.00     0.163 HD
BRANCH   3   6
HETATM    6  C15 UNK     1       0.934 -18.986  32.741  1.00  0.00     0.035 A 
HETATM    7  C43 UNK     1       1.722 -20.138  32.573  1.00  0.00     0.049 A 
HETATM    8  C44 UNK     1       3.086 -20.056  32.234  1.00  0.00     0.073 A 
HETATM    9  N45 UNK     1       3.924 -21.204  31.977  1.00  0.00    -0.277 N 
HETATM   10  C12 UNK     1       3.624 -18.776  32.039  1.00  0.00     0.073 A 
HETATM   11  S02 UNK     1       4.496 -21.332  30.371  1.00  0.00     0.242 S 
HETATM   12  C46 UNK     1       3.630 -22.479  32.653  1.00  0.00     0.169 C 
HETATM   13  O47 UNK     1       4.953 -22.698  30.192  1.00  0.00    -0.205 OA
HETATM   14  C03 UNK     1       5.979 -20.230  30.338  1.00  0.00     0.092 C 
HETATM   15  O01 UNK     1       3.473 -20.806  29.489  1.00  0.00    -0.205 OA
HETATM   16  C06 UNK     1       6.023 -19.297  31.557  1.00  0.00     0.155 C 
HETATM   17  C04 UNK     1       5.983 -19.429  29.023  1.00  0.00     0.035 C 
HETATM   18  C05 UNK     1       7.256 -21.096  30.370  1.00  0.00     0.035 C 
HETATM   19  N07 UNK     1       4.900 -18.389  31.698  1.00  0.00    -0.352 N 
HETATM   20  C08 UNK     1       4.971 -17.028  31.593  1.00  0.00     0.099 A 
HETATM   21  C09 UNK     1       3.720 -16.502  31.854  1.00  0.00    -0.030 A 
HETATM   22  C13 UNK     1       2.869 -17.613  32.160  1.00  0.00     0.002 A 
HETATM   23  C14 UNK     1       1.509 -17.725  32.520  1.00  0.00     0.031 A 
BRANCH  21  24
HETATM   24  C10 UNK     1       3.321 -15.057  31.853  1.00  0.00     0.036 C 
HETATM   25  C11 UNK     1       4.079 -14.198  30.852  1.00  0.00     0.010 C 
ENDBRANCH  21  24
ENDBRANCH   3   6
ENDBRANCH   1   2
BRANCH   1  26
HETATM   26  C19 UNK     1      -3.196 -17.854  31.845  1.00  0.00     0.066 C 
BRANCH  26  27
HETATM   27  C20 UNK     1      -2.761 -16.620  31.087  1.00  0.00    -0.056 A 
HETATM   28  C21 UNK     1      -1.617 -16.650  30.277  1.00  0.00     0.007 A 
HETATM   29  C22 UNK     1      -1.253 -15.531  29.525  1.00  0.00     0.001 A 
HETATM   30  C23 UNK     1      -2.028 -14.374  29.573  1.00  0.00     0.000 A 
HETATM   31  C24 UNK     1      -3.160 -14.329  30.383  1.00  0.00     0.001 A 
HETATM   32  C25 UNK     1      -3.523 -15.444  31.142  1.00  0.00     0.007 A 
ENDBRANCH  26  27
ENDBRANCH   1  26
BRANCH   1  33
HETATM   33  C26 UNK     1      -3.491 -19.029  34.061  1.00  0.00     0.181 C 
BRANCH  33  34
HETATM   34  O27 UNK     1      -4.907 -18.730  34.179  1.00  0.00    -0.391 OA
HETATM   35  H27 UNK     1      -5.018 -17.756  34.170  1.00  0.00     0.210 HD
ENDBRANCH  33  34
BRANCH  33  36
HETATM   36  C28 UNK     1      -3.027 -19.437  35.477  1.00  0.00     0.307 C 
HETATM   37  N29 UNK     1      -3.936 -20.616  35.858  1.00  0.00    -0.058 N 
HETATM   38 3H29 UNK     1      -3.727 -21.405  35.232  1.00  0.00     0.278 HD
HETATM   39 2H29 UNK     1      -4.896 -20.311  35.616  1.00  0.00     0.278 HD
HETATM   40  C30 UNK     1      -3.812 -21.008  37.283  1.00  0.00     0.253 C 
HETATM   41  C31 UNK     1      -4.169 -19.813  38.162  1.00  0.00     0.153 C 
HETATM   42  N32 UNK     1      -3.490 -18.566  37.797  1.00  0.00    -0.345 N 
HETATM   43  C40 UNK     1      -3.142 -18.260  36.478  1.00  0.00     0.253 C 
HETATM   44  O41 UNK     1      -2.873 -17.112  36.127  1.00  0.00    -0.271 OA
BRANCH  42  45
HETATM   45  C33 UNK     1      -3.590 -17.467  38.760  1.00  0.00     0.160 C 
BRANCH  45  46
HETATM   46  C34 UNK     1      -2.330 -17.373  39.561  1.00  0.00    -0.062 C 
HETATM   47  C35 UNK     1      -1.063 -16.899  38.907  1.00  0.00     0.062 C 
HETATM   48  C36 UNK     1      -0.290 -15.923  39.729  1.00  0.00    -0.026 C 
HETATM   49  C37 UNK     1      -0.459 -15.851  41.152  1.00  0.00    -0.027 C 
HETATM   50  C38 UNK     1      -1.425 -16.728  41.880  1.00  0.00     0.054 C 
HETATM   51  C39 UNK     1      -2.380 -17.483  41.002  1.00  0.00    -0.018 C 
ENDBRANCH  45  46
ENDBRANCH  42  45
ENDBRANCH  33  36
ENDBRANCH   1  33
TORSDOF 10
