REMARK  4 active torsions:
REMARK  status: ('A' for Active; 'I' for Inactive)
REMARK    1  A    between atoms: C25_2  and  N3_31 
REMARK    2  A    between atoms: C23_4  and  N4_34 
REMARK    3  A    between atoms: C22_5  and  O6_32 
REMARK    4  A    between atoms: C21_6  and  N2_8 
ROOT
HETATM    1  O4  UNK     1     -29.594  17.045 -13.279  1.00  0.00    -0.333 OA
HETATM    2  C25 UNK     1     -30.718  16.228 -13.033  1.00  0.00     0.233 C 
HETATM    3  C24 UNK     1     -31.008  16.158 -11.531  1.00  0.00     0.090 C 
HETATM    4  C23 UNK     1     -29.762  16.414 -10.678  1.00  0.00     0.223 C 
HETATM    5  C22 UNK     1     -28.489  15.859 -11.343  1.00  0.00     0.207 C 
HETATM    6  C21 UNK     1     -28.346  16.576 -12.741  1.00  0.00     0.168 C 
HETATM    7  C26 UNK     1     -27.636  17.927 -12.494  1.00  0.00     0.074 C 
ENDROOT
BRANCH   4   8
HETATM    8  N4  UNK     1     -29.986  15.681  -9.356  1.00  0.00    -0.072 N 
HETATM    9 3HN4 UNK     1     -29.853  14.677  -9.589  1.00  0.00     0.277 HD
HETATM   10 2HN4 UNK     1     -30.965  15.769  -9.055  1.00  0.00     0.277 HD
HETATM   11  C28 UNK     1     -29.083  16.037  -8.236  1.00  0.00     0.267 C 
ENDBRANCH   4   8
BRANCH   5  12
HETATM   12  O6  UNK     1     -28.715  14.435 -11.282  1.00  0.00    -0.384 OA
HETATM   13  C27 UNK     1     -27.543  13.622 -11.333  1.00  0.00     0.202 C 
ENDBRANCH   5  12
BRANCH   2  14
HETATM   14  N3  UNK     1     -30.627  14.948 -13.692  1.00  0.00    -0.316 N 
HETATM   15  C19 UNK     1     -29.622  14.304 -14.337  1.00  0.00     0.077 A 
HETATM   16  C18 UNK     1     -28.295  14.718 -14.425  1.00  0.00     0.077 A 
HETATM   17  C6  UNK     1     -29.896  13.077 -14.966  1.00  0.00     0.022 A 
HETATM   18  N2  UNK     1     -27.725  15.762 -13.760  1.00  0.00    -0.308 N 
HETATM   19  C11 UNK     1     -27.483  13.876 -15.186  1.00  0.00     0.015 A 
HETATM   20  C17 UNK     1     -26.373  15.628 -14.163  1.00  0.00     0.049 A 
HETATM   21  C12 UNK     1     -26.217  14.479 -15.038  1.00  0.00     0.004 A 
HETATM   22  C16 UNK     1     -25.228  16.391 -13.840  1.00  0.00     0.030 A 
HETATM   23  C13 UNK     1     -24.924  14.173 -15.526  1.00  0.00     0.014 A 
HETATM   24  C14 UNK     1     -23.820  14.953 -15.187  1.00  0.00     0.001 A 
HETATM   25  C15 UNK     1     -23.974  16.047 -14.355  1.00  0.00     0.002 A 
HETATM   26  C10 UNK     1     -27.753  12.654 -15.825  1.00  0.00    -0.008 A 
HETATM   27  C7  UNK     1     -29.063  12.194 -15.693  1.00  0.00     0.056 A 
HETATM   28  C9  UNK     1     -26.938  11.694 -16.558  1.00  0.00     0.193 A 
HETATM   29  C8  UNK     1     -29.160  10.909 -16.332  1.00  0.00     0.274 A 
HETATM   30  N1  UNK     1     -27.930  10.625 -16.832  1.00  0.00    -0.247 NA
HETATM   31  O5  UNK     1     -30.121  10.155 -16.427  1.00  0.00    -0.266 OA
HETATM   32  C5  UNK     1     -31.272  12.907 -14.668  1.00  0.00     0.004 A 
HETATM   33  C4  UNK     1     -32.243  11.920 -14.949  1.00  0.00     0.014 A 
HETATM   34  C20 UNK     1     -31.705  14.062 -13.915  1.00  0.00     0.048 A 
HETATM   35  C3  UNK     1     -33.567  12.059 -14.524  1.00  0.00     0.001 A 
HETATM   36  C2  UNK     1     -33.966  13.184 -13.821  1.00  0.00     0.002 A 
HETATM   37  C1  UNK     1     -33.053  14.193 -13.514  1.00  0.00     0.030 A 
ENDBRANCH   2  14
TORSDOF 4
