REMARK  6 active torsions:
REMARK  status: ('A' for Active; 'I' for Inactive)
REMARK    1  A    between atoms: C10_1  and  O11_17 
REMARK    2  A    between atoms: C10_1  and  C03_16 
REMARK    3  A    between atoms: C13_2  and  O12_13 
REMARK    4  A    between atoms: O12_13  and  C02_14 
REMARK    5  A    between atoms: C02_14  and  C03_16 
REMARK    6  A    between atoms: C03_16  and  C04_18 
ROOT
HETATM    1  O12 UNK     1     182.972  28.851 525.381  1.00  0.00    -0.315 OA
ENDROOT
BRANCH   1   2
HETATM    2  C13 UNK     1     181.700  28.193 525.177  1.00  0.00     0.136 C 
HETATM    3  C14 UNK     1     181.088  28.751 523.866  1.00  0.00     0.069 C 
HETATM    4  C15 UNK     1     180.185  29.981 524.098  1.00  0.00     0.224 C 
HETATM    5  C16 UNK     1     181.032  31.068 524.748  1.00  0.00     0.184 A 
HETATM    6  N19 UNK     1     179.093  29.571 525.133  1.00  0.00    -0.061 N 
HETATM    7  C17 UNK     1     180.898  30.876 526.225  1.00  0.00     0.184 A 
HETATM    8  O18 UNK     1     180.384  32.039 525.573  1.00  0.00    -0.371 OA
HETATM    9  C22 UNK     1     179.980  29.676 526.411  1.00  0.00     0.224 C 
HETATM   10  C23 UNK     1     180.866  28.413 526.467  1.00  0.00     0.069 C 
HETATM   11  C20 UNK     1     177.939  30.593 525.164  1.00  0.00     0.273 C 
HETATM   12  C21 UNK     1     178.396  28.235 524.888  1.00  0.00     0.273 C 
ENDBRANCH   1   2
BRANCH   1  13
HETATM   13  C02 UNK     1     184.072  28.259 524.821  1.00  0.00     0.270 C 
HETATM   14  O01 UNK     1     184.011  27.225 524.166  1.00  0.00    -0.264 OA
BRANCH  13  15
HETATM   15  C03 UNK     1     185.336  29.087 525.009  1.00  0.00     0.142 C 
BRANCH  15  16
HETATM   16  C10 UNK     1     186.561  28.162 525.050  1.00  0.00     0.183 C 
BRANCH  16  17
HETATM   17  O11 UNK     1     187.756  28.927 524.906  1.00  0.00    -0.400 OA
HETATM   18  H11 UNK     1     188.508  28.322 525.035  1.00  0.00     0.209 HD
ENDBRANCH  16  17
ENDBRANCH  15  16
BRANCH  15  19
HETATM   19  C04 UNK     1     185.276  30.037 526.203  1.00  0.00    -0.043 A 
HETATM   20  C05 UNK     1     185.217  29.563 527.524  1.00  0.00     0.008 A 
HETATM   21  C06 UNK     1     185.163  30.457 528.595  1.00  0.00     0.001 A 
HETATM   22  C07 UNK     1     185.162  31.831 528.362  1.00  0.00     0.000 A 
HETATM   23  C08 UNK     1     185.219  32.315 527.057  1.00  0.00     0.001 A 
HETATM   24  C09 UNK     1     185.276  31.424 525.984  1.00  0.00     0.008 A 
ENDBRANCH  15  19
ENDBRANCH  13  15
ENDBRANCH   1  13
TORSDOF 6
